
     RDKit          3D

 25 27  0  0  0  0  0  0  0  0999 V2000
    6.7606   -1.6299    0.1721 Br  0  0  0  0  0  0  0  0  0  0  0  0
    7.9639   -0.3824    0.9268 C   0  0  0  0  0  0  0  0  0  0  0  0
    7.7172    0.1340    2.1991 C   0  0  0  0  0  0  0  0  0  0  0  0
    9.0901    0.0117    0.2081 C   0  0  0  0  0  0  0  0  0  0  0  0
    8.6082    1.0563    2.7717 C   0  0  0  0  0  0  0  0  0  0  0  0
    9.9770    0.9316    0.7653 C   0  0  0  0  0  0  0  0  0  0  0  0
    9.7368    1.4536    2.0378 C   0  0  0  0  0  0  0  0  0  0  0  0
    8.3553    1.6173    4.1501 C   0  0  0  0  0  0  0  0  0  0  0  0
    6.9730    2.0341    4.3269 N   0  0  0  0  0  0  0  0  0  0  0  0
    6.0894    1.1813    4.8786 N   0  0  0  0  0  0  0  0  0  0  0  0
    6.3751    3.2218    3.9743 C   0  0  0  0  0  0  0  0  0  0  0  0
    4.9178    1.7953    4.9285 N   0  0  0  0  0  0  0  0  0  0  0  0
    7.0630    4.3408    3.3532 C   0  0  0  0  0  0  0  0  0  0  0  0
    5.0587    3.0530    4.3854 C   0  0  0  0  0  0  0  0  0  0  0  0
    6.4561    5.0541    2.3127 C   0  0  0  0  0  0  0  0  0  0  0  0
    8.3438    4.7053    3.7851 C   0  0  0  0  0  0  0  0  0  0  0  0
    3.9579    3.9998    4.2840 C   0  0  0  0  0  0  0  0  0  0  0  0
    7.1297    6.1141    1.7009 C   0  0  0  0  0  0  0  0  0  0  0  0
    9.0185    5.7640    3.1732 C   0  0  0  0  0  0  0  0  0  0  0  0
    3.6729    4.6137    3.2610 O   0  0  0  0  0  0  0  0  0  0  0  0
    3.2742    4.1284    5.4603 O   0  0  0  0  0  0  0  0  0  0  0  0
    8.4087    6.4618    2.1327 C   0  0  0  0  0  0  0  0  0  0  0  0
    2.4722    5.3099    5.5552 C   0  0  0  0  0  0  0  0  0  0  0  0
    9.3234    7.8901    1.2989 Br  0  0  0  0  0  0  0  0  0  0  0  0
    3.3952    6.4919    5.7786 C   0  0  0  0  0  0  0  0  0  0  0  0
  1  2  1  0
  2  3  4  0
  2  4  4  0
  3  5  4  0
  4  6  4  0
  5  7  4  0
  5  8  1  0
  8  9  1  0
  9 10  4  0
  9 11  4  0
 10 12  4  0
 11 13  1  0
 11 14  4  0
 13 15  4  0
 13 16  4  0
 14 17  1  0
 15 18  4  0
 16 19  4  0
 17 20  2  0
 17 21  1  0
 18 22  4  0
 21 23  1  0
 22 24  1  0
 23 25  1  0
  6  7  4  0
 12 14  4  0
 19 22  4  0
M  END
