
     RDKit          3D

 40 43  0  0  0  0  0  0  0  0999 V2000
   11.8454   -2.9306    1.0052 F   0  0  0  0  0  0  0  0  0  0  0  0
   10.5062   -2.6901    0.9250 C   0  0  0  0  0  0  0  0  0  0  0  0
   10.3613   -1.6905    0.0091 F   0  0  0  0  0  0  0  0  0  0  0  0
    9.9611   -3.8024    0.3570 F   0  0  0  0  0  0  0  0  0  0  0  0
    9.9020   -2.3294    2.2609 C   0  0  0  0  0  0  0  0  0  0  0  0
    8.7139   -1.5841    2.3150 C   0  0  0  0  0  0  0  0  0  0  0  0
   10.4940   -2.7501    3.4604 C   0  0  0  0  0  0  0  0  0  0  0  0
    8.1301   -1.2621    3.5421 C   0  0  0  0  0  0  0  0  0  0  0  0
    9.9135   -2.4229    4.6880 C   0  0  0  0  0  0  0  0  0  0  0  0
    8.7233   -1.6809    4.7440 C   0  0  0  0  0  0  0  0  0  0  0  0
    8.0809   -1.3267    6.0842 C   0  0  0  0  0  0  0  0  0  0  0  0
    8.0662   -2.4609    7.0538 N   0  0  0  0  0  0  0  0  0  0  0  0
    6.6313   -0.8016    5.8104 C   0  0  0  0  0  0  0  0  0  0  0  0
    8.0334   -2.0248    8.4666 C   0  0  0  0  0  0  0  0  0  0  0  0
    6.9060   -3.3606    6.8450 C   0  0  0  0  0  0  0  0  0  0  0  0
    6.2464    0.3408    6.0546 O   0  0  0  0  0  0  0  0  0  0  0  0
    5.7955   -1.7479    5.2428 N   0  0  0  0  0  0  0  0  0  0  0  0
    6.6910   -1.4093    8.9238 C   0  0  0  0  0  0  0  0  0  0  0  0
    5.5404   -2.7678    7.2756 C   0  0  0  0  0  0  0  0  0  0  0  0
    4.6783   -1.3298    4.4280 C   0  0  0  0  0  0  0  0  0  0  0  0
    5.5398   -2.3003    8.6743 N   0  0  0  0  0  0  0  0  0  0  0  0
    3.3900   -1.8650    4.9918 C   0  0  0  0  0  0  0  0  0  0  0  0
    4.2816   -1.6348    9.0544 C   0  0  0  0  0  0  0  0  0  0  0  0
    2.2958   -1.0156    5.2087 C   0  0  0  0  0  0  0  0  0  0  0  0
    3.2853   -3.2162    5.3529 C   0  0  0  0  0  0  0  0  0  0  0  0
    4.2000   -0.1271    8.7341 C   0  0  0  0  0  0  0  0  0  0  0  0
    1.1136   -1.5136    5.7595 C   0  0  0  0  0  0  0  0  0  0  0  0
    2.1026   -3.7118    5.9039 C   0  0  0  0  0  0  0  0  0  0  0  0
    3.0241    0.4046    9.3703 O   0  0  0  0  0  0  0  0  0  0  0  0
    4.1129    0.1386    7.2196 C   0  0  0  0  0  0  0  0  0  0  0  0
    1.0175   -2.8606    6.1060 C   0  0  0  0  0  0  0  0  0  0  0  0
    3.5513    1.4341    6.9361 O   0  0  0  0  0  0  0  0  0  0  0  0
    4.2061    2.1672    5.9856 C   0  0  0  0  0  0  0  0  0  0  0  0
    4.5166    1.4945    4.8055 C   0  0  0  0  0  0  0  0  0  0  0  0
    4.5986    3.4958    6.1454 C   0  0  0  0  0  0  0  0  0  0  0  0
    5.1712    2.1642    3.7689 C   0  0  0  0  0  0  0  0  0  0  0  0
    5.2563    4.1667    5.1061 C   0  0  0  0  0  0  0  0  0  0  0  0
    5.5385    3.5050    3.9093 C   0  0  0  0  0  0  0  0  0  0  0  0
    6.1648    4.0435    2.8181 O   0  0  0  0  0  0  0  0  0  0  0  0
    6.0280    5.4462    2.6266 C   0  0  0  0  0  0  0  0  0  0  0  0
  1  2  1  0
  2  3  1  0
  2  4  1  0
  2  5  1  0
  5  6  4  0
  5  7  4  0
  6  8  4  0
  7  9  4  0
  8 10  4  0
 10 11  1  0
 11 12  1  0
 11 13  1  0
 12 14  1  0
 12 15  1  0
 13 16  2  0
 13 17  1  0
 14 18  1  0
 15 19  1  0
 17 20  1  0
 18 21  1  0
 20 22  1  0
 21 23  1  0
 22 24  4  0
 22 25  4  0
 23 26  1  0
 24 27  4  0
 25 28  4  0
 26 29  1  0
 26 30  1  0
 27 31  4  0
 30 32  1  0
 32 33  1  0
 33 34  4  0
 33 35  4  0
 34 36  4  0
 35 37  4  0
 36 38  4  0
 38 39  1  0
 39 40  1  0
  9 10  4  0
 19 21  1  0
 28 31  4  0
 37 38  4  0
M  END
