
     RDKit          3D

 24 27  0  0  0  0  0  0  0  0999 V2000
    5.1206    8.0944    0.1265 F   0  0  0  0  0  0  0  0  0  0  0  0
    5.0837    7.2961    1.2021 C   0  0  0  0  0  0  0  0  0  0  0  0
    3.8596    6.8376    1.6699 C   0  0  0  0  0  0  0  0  0  0  0  0
    6.2690    6.9391    1.8314 C   0  0  0  0  0  0  0  0  0  0  0  0
    3.8181    6.0032    2.7879 C   0  0  0  0  0  0  0  0  0  0  0  0
    6.2293    6.1008    2.9480 C   0  0  0  0  0  0  0  0  0  0  0  0
    5.0045    5.6172    3.4362 C   0  0  0  0  0  0  0  0  0  0  0  0
    4.9840    4.7116    4.6622 C   0  0  2  0  0  0  0  0  0  0  0  0
    4.4539    3.2694    4.4109 C   0  0  0  0  0  0  0  0  0  0  0  0
    4.1788    5.4034    5.7793 C   0  0  0  0  0  0  0  0  0  0  0  0
    4.3212    2.5123    5.7461 C   0  0  0  0  0  0  0  0  0  0  0  0
    5.3755    2.4472    3.4889 C   0  0  0  0  0  0  0  0  0  0  0  0
    4.0932    4.5387    7.0314 C   0  0  0  0  0  0  0  0  0  0  0  0
    3.5115    3.2351    6.7234 N   0  0  0  0  0  0  0  0  0  0  0  0
    6.7032    2.4196    4.0079 O   0  0  0  0  0  0  0  0  0  0  0  0
    7.6328    1.7163    3.2897 C   0  0  0  0  0  0  0  0  0  0  0  0
    7.4698    0.4096    2.8167 C   0  0  0  0  0  0  0  0  0  0  0  0
    8.8259    2.4212    3.0242 C   0  0  0  0  0  0  0  0  0  0  0  0
    8.5162   -0.1508    2.1114 C   0  0  0  0  0  0  0  0  0  0  0  0
    9.8716    1.8260    2.3112 C   0  0  0  0  0  0  0  0  0  0  0  0
    8.5301   -1.4059    1.5838 O   0  0  0  0  0  0  0  0  0  0  0  0
    9.6866    0.5327    1.8718 C   0  0  0  0  0  0  0  0  0  0  0  0
    9.8359   -1.4222    0.9642 C   0  0  0  0  0  0  0  0  0  0  0  0
   10.5895   -0.2067    1.1735 O   0  0  0  0  0  0  0  0  0  0  0  0
  1  2  1  0
  2  3  4  0
  2  4  4  0
  3  5  4  0
  4  6  4  0
  5  7  4  0
  8  7  1  6
  8  9  1  0
  8 10  1  0
  9 11  1  0
  9 12  1  0
 10 13  1  0
 11 14  1  0
 12 15  1  0
 15 16  1  0
 16 17  4  0
 16 18  4  0
 17 19  4  0
 18 20  4  0
 19 21  1  0
 19 22  4  0
 21 23  1  0
 22 24  1  0
  6  7  4  0
 13 14  1  0
 20 22  4  0
 23 24  1  0
M  END
