
     RDKit          3D

 41 46  0  0  0  0  0  0  0  0999 V2000
    8.7817   -3.1024    4.9590 S   0  0  0  0  0  0  0  0  0  0  0  0
    7.8409   -1.6105    4.7555 C   0  0  0  0  0  0  0  0  0  0  0  0
    7.6547   -4.3251    5.7763 C   0  0  0  0  0  0  0  0  0  0  0  0
    7.5225   -0.8138    5.8558 C   0  0  0  0  0  0  0  0  0  0  0  0
    7.3407   -1.2563    3.4993 C   0  0  0  0  0  0  0  0  0  0  0  0
    7.7185   -4.4445    7.3346 C   0  0  0  0  0  0  0  0  0  0  0  0
    6.1969   -4.3852    5.2690 C   0  0  0  0  0  0  0  0  0  0  0  0
    6.8194    0.3819    5.6808 C   0  0  0  0  0  0  0  0  0  0  0  0
    6.6260   -0.0652    3.3264 C   0  0  0  0  0  0  0  0  0  0  0  0
    6.6437   -3.6382    8.1625 C   0  0  0  0  0  0  0  0  0  0  0  0
    9.0597   -4.3935    8.0929 C   0  0  2  0  0  0  0  0  0  0  0  0
    5.2883   -3.4445    6.0260 C   0  0  0  0  0  0  0  0  0  0  0  0
    6.3834    0.7816    4.4111 C   0  0  0  0  0  0  0  0  0  0  0  0
    5.2063   -3.6736    7.5284 C   0  0  0  0  0  0  0  0  0  0  0  0
    7.1737   -2.2567    8.6009 C   0  0  0  0  0  0  0  0  0  0  0  0
    9.5798   -3.0332    8.6112 C   0  0  0  0  0  0  0  0  0  0  0  0
   10.2982   -5.1349    7.6091 C   0  0  0  0  0  0  0  0  0  0  0  0
    4.6205   -2.4754    5.3791 C   0  0  0  0  0  0  0  0  0  0  0  0
    5.7953    2.0588    4.2754 N   0  0  0  0  0  0  0  0  0  0  0  0
    4.1870   -2.7026    8.1995 C   0  0  0  0  0  0  0  0  0  0  0  0
    4.6112   -5.0943    7.7797 C   0  0  0  0  0  0  0  0  0  0  0  0
    8.4780   -2.3638    9.4217 C   0  0  0  0  0  0  0  0  0  0  0  0
   10.7684   -3.5858    9.3892 C   0  0  0  0  0  0  0  0  0  0  0  0
   10.2048   -2.0181    7.6487 C   0  0  0  0  0  0  0  0  0  0  0  0
   11.3024   -4.8649    8.7480 C   0  0  0  0  0  0  0  0  0  0  0  0
    3.9358   -1.3807    6.1011 C   0  0  0  0  0  0  0  0  0  0  0  0
    6.3143    3.1795    3.5842 C   0  0  0  0  0  0  0  0  0  0  0  0
    4.1192   -1.3080    7.5931 C   0  0  0  0  0  0  0  0  0  0  0  0
   11.2508   -3.0599   10.3852 O   0  0  0  0  0  0  0  0  0  0  0  0
    3.3461   -0.5097    5.4663 O   0  0  0  0  0  0  0  0  0  0  0  0
    5.5742    4.3503    3.3150 C   0  0  0  0  0  0  0  0  0  0  0  0
    7.6410    3.1271    3.1144 C   0  0  0  0  0  0  0  0  0  0  0  0
    4.1928    4.4949    3.7831 N   0  0  0  0  0  0  0  0  0  0  0  0
    6.1270    5.4219    2.5890 C   0  0  0  0  0  0  0  0  0  0  0  0
    8.2034    4.1775    2.3845 C   0  0  0  0  0  0  0  0  0  0  0  0
    3.4016    5.1387    3.0735 O   0  0  0  0  0  0  0  0  0  0  0  0
    3.9109    3.9893    4.8801 O   0  0  0  0  0  0  0  0  0  0  0  0
    7.4411    5.3176    2.1181 C   0  0  0  0  0  0  0  0  0  0  0  0
    8.0230    6.4138    1.3331 N   0  0  0  0  0  0  0  0  0  0  0  0
    8.0501    6.2869    0.1002 O   0  0  0  0  0  0  0  0  0  0  0  0
    8.4418    7.4001    1.9524 O   0  0  0  0  0  0  0  0  0  0  0  0
  1  2  1  0
  3  1  1  0
  2  4  4  0
  2  5  4  0
  6  3  1  0
  3  7  1  0
  4  8  4  0
  5  9  4  0
  6 10  1  0
  6 11  1  0
  7 12  1  0
  8 13  4  0
 10 14  1  0
 10 15  1  0
 11 16  1  0
 11 17  1  6
 12 18  2  0
 13 19  1  0
 14 20  1  0
 14 21  1  0
 15 22  1  0
 16 23  1  0
 16 24  1  0
 17 25  1  0
 18 26  1  0
 19 27  1  0
 20 28  1  0
 23 29  2  0
 26 30  2  0
 27 31  4  0
 27 32  4  0
 31 33  1  0
 31 34  4  0
 32 35  4  0
 33 36  2  0
 33 37  1  0
 34 38  4  0
 38 39  1  0
 39 40  2  0
 39 41  1  0
  9 13  4  0
 12 14  1  0
 16 22  1  0
 23 25  1  0
 26 28  1  0
 35 38  4  0
M  CHG  4  33   1  37  -1  39   1  41  -1
M  END
