
     RDKit          3D

 23 27  0  0  0  0  0  0  0  0999 V2000
    4.3957    4.6200    5.1195 O   0  0  0  0  0  0  0  0  0  0  0  0
    5.2355    4.4816    4.2337 C   0  0  0  0  0  0  0  0  0  0  0  0
    5.4740    5.5590    3.2170 C   0  0  1  0  0  0  0  0  0  0  0  0
    5.9524    3.1765    4.0454 C   0  0  0  0  0  0  0  0  0  0  0  0
    5.0706    6.8585    3.7217 O   0  0  0  0  0  0  0  0  0  0  0  0
    6.8017    5.6290    2.4195 C   0  0  1  0  0  0  0  0  0  0  0  0
    4.2423    6.3034    2.6992 C   0  0  1  0  0  0  0  0  0  0  0  0
    7.3805    3.3463    3.5314 C   0  0  2  0  0  0  0  0  0  0  0  0
    7.3678    4.1663    2.2067 C   0  0  2  0  0  0  0  0  0  0  0  0
    6.5690    6.2502    1.0038 C   0  0  0  0  0  0  0  0  0  0  0  0
    7.8060    6.5136    3.2017 C   0  0  0  0  0  0  0  0  0  0  0  0
    4.2864    7.0640    1.4368 C   0  0  0  0  0  0  0  0  0  0  0  0
    8.0114    1.9732    3.2670 C   0  0  1  0  0  0  0  0  0  0  0  0
    8.7289    4.1264    1.4483 C   0  0  0  0  0  0  0  0  0  0  0  0
    5.6582    7.4706    0.9736 C   0  0  0  0  0  0  0  0  0  0  0  0
    3.2573    7.3426    0.8348 O   0  0  0  0  0  0  0  0  0  0  0  0
    9.4497    2.0841    2.7302 C   0  0  2  0  0  0  0  0  0  0  0  0
    8.1159    0.9596    4.4034 C   0  0  0  0  0  0  0  0  0  0  0  0
    9.3704    2.7327    1.3542 C   0  0  0  0  0  0  0  0  0  0  0  0
    9.8154    0.6110    2.7600 C   0  0  0  0  0  0  0  0  0  0  0  0
   10.4524    2.8089    3.6455 C   0  0  0  0  0  0  0  0  0  0  0  0
    9.0050   -0.1392    3.8023 C   0  0  0  0  0  0  0  0  0  0  0  0
   10.6690    0.0925    2.0534 O   0  0  0  0  0  0  0  0  0  0  0  0
  1  2  2  0
  2  3  1  0
  2  4  1  0
  3  5  1  1
  3  6  1  0
  3  7  1  0
  8  4  1  6
  6  9  1  0
  6 10  1  0
  6 11  1  1
  7 12  1  0
  8 13  1  0
  9 14  1  1
 10 15  1  0
 12 16  2  0
 13 17  1  0
 13 18  1  1
 14 19  1  0
 17 20  1  0
 17 21  1  1
 18 22  1  0
 20 23  2  0
  7  5  1  1
  8  9  1  0
 12 15  1  0
 17 19  1  0
 20 22  1  0
M  END
