
     RDKit          3D

 22 25  0  0  0  0  0  0  0  0999 V2000
    8.2164    7.1722    2.3282 F   0  0  0  0  0  0  0  0  0  0  0  0
    7.6752    6.1462    3.0462 C   0  0  1  0  0  0  0  0  0  0  0  0
    6.1655    6.1586    2.9702 C   0  0  0  0  0  0  0  0  0  0  0  0
    8.2696    4.8515    2.5127 C   0  0  0  0  0  0  0  0  0  0  0  0
    5.5285    7.2076    2.4176 C   0  0  0  0  0  0  0  0  0  0  0  0
    5.4403    4.9458    3.5690 C   0  0  2  0  0  0  0  0  0  0  0  0
    7.6780    3.6321    3.2252 C   0  0  1  0  0  0  0  0  0  0  0  0
    4.0532    7.3244    2.4307 C   0  0  0  0  0  0  0  0  0  0  0  0
    6.1237    3.6181    3.0589 C   0  0  1  0  0  0  0  0  0  0  0  0
    3.9512    4.9356    3.1109 C   0  0  0  0  0  0  0  0  0  0  0  0
    5.4894    5.0669    5.1087 C   0  0  0  0  0  0  0  0  0  0  0  0
    8.2347    2.3217    2.6621 C   0  0  2  0  0  0  0  0  0  0  0  0
    3.5154    8.2838    1.8846 O   0  0  0  0  0  0  0  0  0  0  0  0
    3.2707    6.2938    3.1997 C   0  0  0  0  0  0  0  0  0  0  0  0
    5.4874    2.3193    3.6313 C   0  0  0  0  0  0  0  0  0  0  0  0
    7.6874    1.0961    3.4211 C   0  0  1  0  0  0  0  0  0  0  0  0
    9.7413    2.0903    2.6174 C   0  0  0  0  0  0  0  0  0  0  0  0
    6.1850    1.0264    3.1688 C   0  0  0  0  0  0  0  0  0  0  0  0
    8.5380    0.0282    2.7572 C   0  0  0  0  0  0  0  0  0  0  0  0
    8.0063    1.0386    4.9264 C   0  0  0  0  0  0  0  0  0  0  0  0
    9.8454    0.6046    2.2404 C   0  0  0  0  0  0  0  0  0  0  0  0
    8.2292   -1.1525    2.6701 O   0  0  0  0  0  0  0  0  0  0  0  0
  2  1  1  6
  2  3  1  0
  2  4  1  0
  3  5  2  0
  3  6  1  0
  7  4  1  6
  5  8  1  0
  6  9  1  0
  6 10  1  0
  6 11  1  1
  7 12  1  0
  8 13  2  0
  8 14  1  0
  9 15  1  1
 12 16  1  0
 12 17  1  1
 15 18  1  0
 16 19  1  0
 16 20  1  1
 17 21  1  0
 19 22  2  0
  7  9  1  0
 10 14  1  0
 16 18  1  0
 19 21  1  0
M  END
