
     RDKit          3D

 24 28  0  0  0  0  0  0  0  0999 V2000
    4.0110    4.2227    7.1211 S   0  0  0  0  0  0  0  0  0  0  0  0
    4.0440    5.3531    5.7971 C   0  0  0  0  0  0  0  0  0  0  0  0
    3.2380    4.1007    5.5901 C   0  0  0  0  0  0  0  0  0  0  0  0
    5.3751    5.5458    5.1186 C   0  0  0  0  0  0  0  0  0  0  0  0
    5.5125    4.9865    3.6494 C   0  0  1  0  0  0  0  0  0  0  0  0
    6.2565    6.0056    2.7779 C   0  0  0  0  0  0  0  0  0  0  0  0
    6.1968    3.5348    3.6916 C   0  0  2  0  0  0  0  0  0  0  0  0
    4.0521    4.8736    3.0879 C   0  0  0  0  0  0  0  0  0  0  0  0
    5.6386    6.9628    2.0597 C   0  0  0  0  0  0  0  0  0  0  0  0
    7.7555    5.9200    2.7171 C   0  0  0  0  0  0  0  0  0  0  0  0
    7.7431    3.4935    3.3900 C   0  0  2  0  0  0  0  0  0  0  0  0
    5.4802    2.3931    2.9112 C   0  0  0  0  0  0  0  0  0  0  0  0
    3.3335    6.2043    2.8870 C   0  0  0  0  0  0  0  0  0  0  0  0
    4.1701    7.1490    2.0692 C   0  0  0  0  0  0  0  0  0  0  0  0
    8.1810    4.5196    2.3391 C   0  0  0  0  0  0  0  0  0  0  0  0
    8.1824    2.0977    2.9101 C   0  0  2  0  0  0  0  0  0  0  0  0
    6.0009    0.9761    3.2630 C   0  0  0  0  0  0  0  0  0  0  0  0
    3.6796    8.0893    1.4491 O   0  0  0  0  0  0  0  0  0  0  0  0
    7.4804    0.9537    3.6537 C   0  0  1  0  0  0  0  0  0  0  0  0
    9.6659    1.7423    2.9642 C   0  0  0  0  0  0  0  0  0  0  0  0
    8.2927   -0.2069    3.0981 C   0  0  0  0  0  0  0  0  0  0  0  0
    7.6805    0.9213    5.1790 C   0  0  0  0  0  0  0  0  0  0  0  0
    9.6690    0.2426    2.6411 C   0  0  0  0  0  0  0  0  0  0  0  0
    7.9040   -1.3664    3.0473 O   0  0  0  0  0  0  0  0  0  0  0  0
  1  2  1  0
  1  3  1  0
  2  4  1  0
  5  4  1  1
  5  6  1  0
  5  7  1  0
  5  8  1  0
  6  9  2  0
  6 10  1  0
  7 11  1  0
  7 12  1  6
  8 13  1  0
  9 14  1  0
 10 15  1  0
 11 16  1  0
 12 17  1  0
 14 18  2  0
 16 19  1  0
 16 20  1  1
 19 21  1  0
 19 22  1  1
 20 23  1  0
 21 24  2  0
  2  3  1  0
 11 15  1  6
 13 14  1  0
 17 19  1  0
 21 23  1  0
M  END
