
     RDKit          3D

 21 24  0  0  0  0  0  0  0  0999 V2000
    2.9606    6.8019    1.2187 O   0  0  0  0  0  0  0  0  0  0  0  0
    3.7000    6.2549    2.0269 C   0  0  0  0  0  0  0  0  0  0  0  0
    5.1649    6.4477    1.9814 C   0  0  0  0  0  0  0  0  0  0  0  0
    3.1647    5.3762    3.0850 C   0  0  0  0  0  0  0  0  0  0  0  0
    5.9842    5.8504    2.8645 C   0  0  0  0  0  0  0  0  0  0  0  0
    3.9839    4.7811    3.9625 C   0  0  0  0  0  0  0  0  0  0  0  0
    5.4981    4.9303    3.9742 C   0  0  1  0  0  0  0  0  0  0  0  0
    7.4733    6.0473    2.7957 C   0  0  0  0  0  0  0  0  0  0  0  0
    6.2057    3.5320    3.8739 C   0  0  2  0  0  0  0  0  0  0  0  0
    5.8343    5.5747    5.3446 C   0  0  0  0  0  0  0  0  0  0  0  0
    8.1576    4.7063    2.5951 C   0  0  0  0  0  0  0  0  0  0  0  0
    7.7579    3.6182    3.6205 C   0  0  2  0  0  0  0  0  0  0  0  0
    5.5783    2.5074    2.8926 C   0  0  0  0  0  0  0  0  0  0  0  0
    8.2948    2.2702    3.0953 C   0  0  2  0  0  0  0  0  0  0  0  0
    6.1198    1.0705    3.1230 C   0  0  0  0  0  0  0  0  0  0  0  0
    7.5619    1.0407    3.6516 C   0  0  1  0  0  0  0  0  0  0  0  0
    9.7765    1.9565    3.2670 C   0  0  0  0  0  0  0  0  0  0  0  0
    8.4640   -0.0326    3.0575 C   0  0  0  0  0  0  0  0  0  0  0  0
    7.6352    0.8446    5.1765 C   0  0  0  0  0  0  0  0  0  0  0  0
    9.8656    0.4970    2.7988 C   0  0  0  0  0  0  0  0  0  0  0  0
    8.1223   -1.1880    2.8422 O   0  0  0  0  0  0  0  0  0  0  0  0
  1  2  2  0
  2  3  1  0
  2  4  1  0
  3  5  2  0
  4  6  2  0
  5  7  1  0
  5  8  1  0
  7  9  1  0
  7 10  1  1
  8 11  1  0
  9 12  1  0
  9 13  1  6
 12 14  1  0
 13 15  1  0
 14 16  1  0
 14 17  1  1
 16 18  1  0
 16 19  1  1
 17 20  1  0
 18 21  2  0
  6  7  1  0
 12 11  1  6
 15 16  1  0
 18 20  1  0
M  END
