
     RDKit          3D

 24 26  0  0  0  0  0  0  0  0999 V2000
    7.5536    4.3526    2.0616 O   0  0  0  0  0  0  0  0  0  0  0  0
    6.4403    3.8989    2.8461 C   0  0  2  0  0  0  0  0  0  0  0  0
    8.4426    5.1809    2.8033 C   0  0  0  0  0  0  0  0  0  0  0  0
    5.4170    5.0155    3.0168 C   0  0  0  0  0  0  0  0  0  0  0  0
    6.9161    3.3641    4.2358 C   0  0  0  0  0  0  0  0  0  0  0  0
    8.5834    6.4588    2.1922 O   0  0  0  0  0  0  0  0  0  0  0  0
    5.8026    6.3544    3.1729 C   0  0  0  0  0  0  0  0  0  0  0  0
    4.0485    4.7008    3.0503 C   0  0  0  0  0  0  0  0  0  0  0  0
    5.7344    2.7974    5.0292 C   0  0  0  0  0  0  0  0  0  0  0  0
    8.0261    2.2977    4.1772 C   0  0  0  0  0  0  0  0  0  0  0  0
    8.0169    6.4860    0.8896 C   0  0  0  0  0  0  0  0  0  0  0  0
    4.8446    7.3541    3.3499 C   0  0  0  0  0  0  0  0  0  0  0  0
    3.0919    5.7024    3.2240 C   0  0  0  0  0  0  0  0  0  0  0  0
    5.5360    1.4094    5.0868 C   0  0  0  0  0  0  0  0  0  0  0  0
    4.8286    3.6367    5.6976 C   0  0  0  0  0  0  0  0  0  0  0  0
    7.9746    1.4452    3.0103 N   0  0  0  0  0  0  0  0  0  0  0  0
    3.4904    7.0287    3.3733 C   0  0  0  0  0  0  0  0  0  0  0  0
    4.4604    0.8750    5.7979 C   0  0  0  0  0  0  0  0  0  0  0  0
    3.7551    3.0989    6.4092 C   0  0  0  0  0  0  0  0  0  0  0  0
    8.8673    1.5962    2.0156 N   0  0  0  0  0  0  0  0  0  0  0  0
    7.1645    0.3715    2.7860 C   0  0  0  0  0  0  0  0  0  0  0  0
    3.5709    1.7191    6.4586 C   0  0  0  0  0  0  0  0  0  0  0  0
    8.6254    0.6514    1.1160 N   0  0  0  0  0  0  0  0  0  0  0  0
    7.5891   -0.1114    1.5729 C   0  0  0  0  0  0  0  0  0  0  0  0
  2  1  1  1
  1  3  1  0
  2  4  1  0
  2  5  1  0
  3  6  1  0
  4  7  4  0
  4  8  4  0
  5  9  1  0
  5 10  1  0
  6 11  1  0
  7 12  4  0
  8 13  4  0
  9 14  4  0
  9 15  4  0
 10 16  1  0
 12 17  4  0
 14 18  4  0
 15 19  4  0
 16 20  4  0
 16 21  4  0
 18 22  4  0
 20 23  4  0
 21 24  4  0
 13 17  4  0
 19 22  4  0
 23 24  4  0
M  END
