
     RDKit          3D

 21 24  0  0  0  0  0  0  0  0999 V2000
    4.6838    7.4644    1.1232 Br  0  0  0  0  0  0  0  0  0  0  0  0
    5.0639    7.0489    2.9786 C   0  0  1  0  0  0  0  0  0  0  0  0
    4.1336    5.9220    3.4039 C   0  0  0  0  0  0  0  0  0  0  0  0
    6.4653    6.4394    3.1364 C   0  0  0  0  0  0  0  0  0  0  0  0
    2.9108    5.9882    3.4283 O   0  0  0  0  0  0  0  0  0  0  0  0
    4.9286    4.7112    3.8643 C   0  0  2  0  0  0  0  0  0  0  0  0
    6.2052    4.9371    3.0159 C   0  0  2  0  0  0  0  0  0  0  0  0
    4.3544    3.3389    3.5206 C   0  0  0  0  0  0  0  0  0  0  0  0
    5.0917    4.8658    5.3903 C   0  0  0  0  0  0  0  0  0  0  0  0
    7.2913    3.9197    3.3829 C   0  0  1  0  0  0  0  0  0  0  0  0
    5.3944    2.2224    3.7516 C   0  0  0  0  0  0  0  0  0  0  0  0
    6.7360    2.4985    3.0271 C   0  0  2  0  0  0  0  0  0  0  0  0
    8.6721    4.1926    2.7568 C   0  0  0  0  0  0  0  0  0  0  0  0
    7.8372    1.3995    3.1930 C   0  0  2  0  0  0  0  0  0  0  0  0
    9.1263    3.1478    1.7411 C   0  0  0  0  0  0  0  0  0  0  0  0
    8.9438    1.7109    2.1806 C   0  0  0  0  0  0  0  0  0  0  0  0
    7.2624   -0.0142    2.8929 C   0  0  0  0  0  0  0  0  0  0  0  0
    8.4326    1.3997    4.6220 C   0  0  0  0  0  0  0  0  0  0  0  0
    9.6490    0.7386    1.5712 C   0  0  0  0  0  0  0  0  0  0  0  0
    8.3488   -1.0871    2.7859 C   0  0  0  0  0  0  0  0  0  0  0  0
    9.4237   -0.7313    1.7618 C   0  0  0  0  0  0  0  0  0  0  0  0
  2  1  1  6
  2  3  1  0
  2  4  1  0
  3  5  2  0
  3  6  1  0
  7  4  1  1
  6  8  1  0
  6  9  1  1
  7 10  1  0
  8 11  1  0
 10 12  1  0
 10 13  1  6
 12 14  1  0
 13 15  1  0
 14 16  1  0
 14 17  1  0
 14 18  1  1
 16 19  2  0
 17 20  1  0
 19 21  1  0
  6  7  1  0
 12 11  1  1
 15 16  1  0
 20 21  1  0
M  END
