
     RDKit          3D

 32 37  0  0  0  0  0  0  0  0999 V2000
    6.4031    0.7992    5.9305 S   0  0  0  0  0  0  0  0  0  0  0  0
    6.3536    2.0899    4.6928 C   0  0  0  0  0  0  0  0  0  0  0  0
    7.1007   -0.5908    4.9257 C   0  0  1  0  0  0  0  0  0  0  0  0
    5.1778    2.8248    4.5177 C   0  0  0  0  0  0  0  0  0  0  0  0
    7.4826    2.4097    3.9342 C   0  0  0  0  0  0  0  0  0  0  0  0
    6.2539   -0.9499    3.6474 C   0  0  1  0  0  0  0  0  0  0  0  0
    8.5876   -0.2886    4.6124 C   0  0  0  0  0  0  0  0  0  0  0  0
    5.1370    3.9203    3.6397 C   0  0  0  0  0  0  0  0  0  0  0  0
    7.4529    3.4899    3.0480 C   0  0  0  0  0  0  0  0  0  0  0  0
    7.1284   -1.9298    2.8147 C   0  0  0  0  0  0  0  0  0  0  0  0
    4.8294   -1.4821    4.0254 C   0  0  2  0  0  0  0  0  0  0  0  0
    8.8489   -0.0779    3.1406 C   0  0  0  0  0  0  0  0  0  0  0  0
    6.2913    4.2627    2.8996 C   0  0  0  0  0  0  0  0  0  0  0  0
    3.9756    4.6931    3.4955 C   0  0  0  0  0  0  0  0  0  0  0  0
    8.3889   -1.1962    2.2028 C   0  0  2  0  0  0  0  0  0  0  0  0
    6.3192   -2.7225    1.7835 C   0  0  0  0  0  0  0  0  0  0  0  0
    4.2040   -2.5953    3.1408 C   0  0  2  0  0  0  0  0  0  0  0  0
    3.7775   -0.3493    3.9246 C   0  0  0  0  0  0  0  0  0  0  0  0
    9.4348    1.0566    2.7101 C   0  0  0  0  0  0  0  0  0  0  0  0
    6.2542    5.3724    2.0393 C   0  0  0  0  0  0  0  0  0  0  0  0
    3.9572    5.8003    2.6422 C   0  0  0  0  0  0  0  0  0  0  0  0
    8.0784   -0.5695    0.8128 C   0  0  0  0  0  0  0  0  0  0  0  0
    9.5375   -2.2259    2.0545 C   0  0  0  0  0  0  0  0  0  0  0  0
    5.2249   -3.5137    2.4787 C   0  0  0  0  0  0  0  0  0  0  0  0
    3.3921   -1.7970    2.1250 C   0  0  0  0  0  0  0  0  0  0  0  0
    3.1957   -3.4428    3.9330 C   0  0  0  0  0  0  0  0  0  0  0  0
    3.3219   -0.3360    2.4702 C   0  0  0  0  0  0  0  0  0  0  0  0
    9.7152    1.2924    1.2720 C   0  0  0  0  0  0  0  0  0  0  0  0
    5.0934    6.1369    1.9132 C   0  0  0  0  0  0  0  0  0  0  0  0
    9.2149    0.2889    0.2577 C   0  0  0  0  0  0  0  0  0  0  0  0
    2.8330   -2.2873    1.1487 O   0  0  0  0  0  0  0  0  0  0  0  0
   10.3952    2.2656    0.9461 O   0  0  0  0  0  0  0  0  0  0  0  0
  1  2  1  0
  3  1  1  6
  2  4  4  0
  2  5  4  0
  6  3  1  0
  3  7  1  0
  4  8  4  0
  5  9  4  0
  6 10  1  1
  6 11  1  0
  7 12  1  0
  8 13  4  0
  8 14  4  0
 10 15  1  0
 10 16  1  0
 11 17  1  0
 11 18  1  6
 12 19  2  0
 13 20  4  0
 14 21  4  0
 15 22  1  0
 15 23  1  6
 16 24  1  0
 17 25  1  0
 17 26  1  1
 18 27  1  0
 19 28  1  0
 20 29  4  0
 22 30  1  0
 25 31  2  0
 28 32  2  0
  9 13  4  0
 12 15  1  0
 17 24  1  0
 21 29  4  0
 25 27  1  0
 28 30  1  0
M  END
