
     RDKit          3D

 25 27  0  0  0  0  0  0  0  0999 V2000
   10.1085   -1.1818    0.9900 Br  0  0  0  0  0  0  0  0  0  0  0  0
    8.9934   -0.0211    1.9806 C   0  0  0  0  0  0  0  0  0  0  0  0
    7.6180   -0.2347    2.0032 C   0  0  0  0  0  0  0  0  0  0  0  0
    9.5519    1.0453    2.6791 C   0  0  0  0  0  0  0  0  0  0  0  0
    6.7918    0.6256    2.7309 C   0  0  0  0  0  0  0  0  0  0  0  0
    8.7265    1.9032    3.4090 C   0  0  0  0  0  0  0  0  0  0  0  0
    7.3363    1.7025    3.4489 C   0  0  0  0  0  0  0  0  0  0  0  0
    6.4607    2.6769    4.2435 C   0  0  1  0  0  0  0  0  0  0  0  0
    6.4019    4.0524    3.5119 C   0  0  2  0  0  0  0  0  0  0  0  0
    5.0474    2.1208    4.5222 C   0  0  0  0  0  0  0  0  0  0  0  0
    7.5931    4.7947    3.8193 O   0  0  0  0  0  0  0  0  0  0  0  0
    5.2296    4.9072    3.9679 C   0  0  0  0  0  0  0  0  0  0  0  0
    5.0346    0.7344    4.9413 N   0  0  0  0  0  0  0  0  0  0  0  0
    8.2828    5.2414    2.6571 C   0  0  0  0  0  0  0  0  0  0  0  0
    5.0799    5.2312    5.3252 C   0  0  0  0  0  0  0  0  0  0  0  0
    4.2894    5.4021    3.0495 C   0  0  0  0  0  0  0  0  0  0  0  0
    4.1700   -0.1346    4.3899 N   0  0  0  0  0  0  0  0  0  0  0  0
    5.7674    0.1467    5.9286 C   0  0  0  0  0  0  0  0  0  0  0  0
    7.4367    6.0137    1.8155 O   0  0  0  0  0  0  0  0  0  0  0  0
    4.0271    6.0441    5.7492 C   0  0  0  0  0  0  0  0  0  0  0  0
    3.2375    6.2141    3.4757 C   0  0  0  0  0  0  0  0  0  0  0  0
    4.3527   -1.3069    4.9831 N   0  0  0  0  0  0  0  0  0  0  0  0
    5.3271   -1.1545    5.9280 C   0  0  0  0  0  0  0  0  0  0  0  0
    8.1341    7.1115    1.2462 C   0  0  0  0  0  0  0  0  0  0  0  0
    3.1093    6.5380    4.8245 C   0  0  0  0  0  0  0  0  0  0  0  0
  1  2  1  0
  2  3  4  0
  2  4  4  0
  3  5  4  0
  4  6  4  0
  5  7  4  0
  7  8  1  0
  8  9  1  0
  8 10  1  6
  9 11  1  1
  9 12  1  0
 10 13  1  0
 11 14  1  0
 12 15  4  0
 12 16  4  0
 13 17  4  0
 13 18  4  0
 14 19  1  0
 15 20  4  0
 16 21  4  0
 17 22  4  0
 18 23  4  0
 19 24  1  0
 20 25  4  0
  6  7  4  0
 21 25  4  0
 22 23  4  0
M  END
