
     RDKit          3D

 22 25  0  0  0  0  0  0  0  0999 V2000
    6.0821    4.3424    4.6671 O   0  0  0  0  0  0  0  0  0  0  0  0
    6.4088    4.1148    3.2796 C   0  0  2  0  0  0  0  0  0  0  0  0
    7.8094    3.5349    3.1895 C   0  0  0  0  0  0  0  0  0  0  0  0
    6.0889    5.4199    2.4671 C   0  0  0  0  0  0  0  0  0  0  0  0
    8.0871    2.1391    3.2130 C   0  0  0  0  0  0  0  0  0  0  0  0
    8.8878    4.4295    3.0864 C   0  0  0  0  0  0  0  0  0  0  0  0
    6.2725    6.7506    3.1387 N   0  0  0  0  0  0  0  0  0  0  0  0
    6.7382    5.4475    1.0645 C   0  0  0  0  0  0  0  0  0  0  0  0
    9.4467    1.7473    3.1222 C   0  0  0  0  0  0  0  0  0  0  0  0
    7.1086    1.1181    3.3244 C   0  0  0  0  0  0  0  0  0  0  0  0
   10.1705    3.9327    3.0033 C   0  0  0  0  0  0  0  0  0  0  0  0
    5.3831    7.7167    2.4369 C   0  0  0  0  0  0  0  0  0  0  0  0
    7.6626    7.2485    2.9902 C   0  0  0  0  0  0  0  0  0  0  0  0
    6.9394    6.9110    0.6261 C   0  0  1  0  0  0  0  0  0  0  0  0
   10.4611    2.6195    3.0210 N   0  0  0  0  0  0  0  0  0  0  0  0
    9.7673    0.3970    3.1387 C   0  0  0  0  0  0  0  0  0  0  0  0
    7.4588   -0.2327    3.3386 C   0  0  0  0  0  0  0  0  0  0  0  0
    5.6683    7.7545    0.9084 C   0  0  0  0  0  0  0  0  0  0  0  0
    8.0514    7.4750    1.5232 C   0  0  0  0  0  0  0  0  0  0  0  0
    8.7926   -0.5948    3.2446 C   0  0  0  0  0  0  0  0  0  0  0  0
    4.4300    7.3341    0.0955 C   0  0  0  0  0  0  0  0  0  0  0  0
    3.1806    8.1309    0.4422 C   0  0  0  0  0  0  0  0  0  0  0  0
  2  1  1  1
  2  3  1  0
  2  4  1  0
  3  5  4  0
  3  6  4  0
  4  7  1  0
  4  8  1  0
  5  9  4  0
  5 10  4  0
  6 11  4  0
  7 12  1  0
  7 13  1  0
 14  8  1  1
  9 15  4  0
  9 16  4  0
 10 17  4  0
 12 18  1  0
 13 19  1  0
 16 20  4  0
 18 21  1  0
 21 22  1  0
 11 15  4  0
 14 18  1  0
 14 19  1  0
 17 20  4  0
M  END
