
     RDKit          3D

 27 31  0  0  0  0  0  0  0  0999 V2000
   11.3599   -1.4405    1.8716 O   0  0  0  0  0  0  0  0  0  0  0  0
   10.3199   -1.1297    2.4376 C   0  0  0  0  0  0  0  0  0  0  0  0
    9.9570    0.2841    2.8656 C   0  0  2  0  0  0  0  0  0  0  0  0
    9.2434   -2.1266    2.8288 C   0  0  0  0  0  0  0  0  0  0  0  0
    8.4287    0.1200    2.9155 C   0  0  1  0  0  0  0  0  0  0  0  0
   10.2889    1.3935    1.8618 C   0  0  0  0  0  0  0  0  0  0  0  0
   10.6496    0.5135    4.2207 C   0  0  0  0  0  0  0  0  0  0  0  0
    8.2058   -1.2525    3.5437 C   0  0  0  0  0  0  0  0  0  0  0  0
    7.7231    1.3331    3.5444 C   0  0  1  0  0  0  0  0  0  0  0  0
    9.1703    2.4549    1.7432 C   0  0  0  0  0  0  0  0  0  0  0  0
    8.3785    2.6677    3.0619 C   0  0  0  0  0  0  0  0  0  0  0  0
    6.2220    1.2620    3.2342 C   0  0  0  0  0  0  0  0  0  0  0  0
    7.4443    3.8681    3.0015 C   0  0  0  0  0  0  0  0  0  0  0  0
    5.4180    2.4783    3.7026 C   0  0  2  0  0  0  0  0  0  0  0  0
    6.0715    3.7812    3.2953 C   0  0  0  0  0  0  0  0  0  0  0  0
    7.9862    5.1338    2.6970 C   0  0  0  0  0  0  0  0  0  0  0  0
    4.9755    2.4248    5.1890 C   0  0  0  0  0  0  0  0  0  0  0  0
    5.2707    4.9405    3.2280 C   0  0  0  0  0  0  0  0  0  0  0  0
    7.1863    6.2746    2.6409 C   0  0  0  0  0  0  0  0  0  0  0  0
    4.2235    1.2040    5.6616 C   0  0  0  0  0  0  0  0  0  0  0  0
    5.8320    6.1690    2.9004 C   0  0  0  0  0  0  0  0  0  0  0  0
    4.2361    0.0166    4.9178 C   0  0  0  0  0  0  0  0  0  0  0  0
    3.5061    1.2377    6.8672 C   0  0  0  0  0  0  0  0  0  0  0  0
    5.0791    7.3030    2.8348 O   0  0  0  0  0  0  0  0  0  0  0  0
    3.5282   -1.1036    5.3566 C   0  0  0  0  0  0  0  0  0  0  0  0
    2.8003    0.1159    7.3057 C   0  0  0  0  0  0  0  0  0  0  0  0
    2.8089   -1.0533    6.5485 C   0  0  0  0  0  0  0  0  0  0  0  0
  1  2  2  0
  2  3  1  0
  2  4  1  0
  3  5  1  0
  3  6  1  0
  3  7  1  1
  4  8  1  0
  5  9  1  0
  6 10  1  0
  9 11  1  0
  9 12  1  6
 11 13  1  0
 12 14  1  0
 13 15  4  0
 13 16  4  0
 14 17  1  1
 15 18  4  0
 16 19  4  0
 17 20  1  0
 18 21  4  0
 20 22  4  0
 20 23  4  0
 21 24  1  0
 22 25  4  0
 23 26  4  0
 25 27  4  0
  5  8  1  1
 11 10  1  0
 14 15  1  0
 19 21  4  0
 26 27  4  0
M  END
