
     RDKit          3D

 22 24  0  0  0  0  0  0  0  0999 V2000
    6.8574    7.0180    1.4821 Br  0  0  0  0  0  0  0  0  0  0  0  0
    6.7107    5.3369    2.3328 C   0  0  0  0  0  0  0  0  0  0  0  0
    7.8510    4.5591    2.5255 C   0  0  0  0  0  0  0  0  0  0  0  0
    5.4658    4.8858    2.7648 C   0  0  0  0  0  0  0  0  0  0  0  0
    7.7449    3.3169    3.1561 C   0  0  0  0  0  0  0  0  0  0  0  0
    5.3611    3.6440    3.3959 C   0  0  0  0  0  0  0  0  0  0  0  0
    6.4991    2.8504    3.5962 C   0  0  0  0  0  0  0  0  0  0  0  0
    6.3808    1.5342    4.2547 C   0  0  0  0  0  0  0  0  0  0  0  0
    6.9074    0.4049    3.7355 C   0  0  0  0  0  0  0  0  0  0  0  0
    5.6220    1.5199    5.5641 C   0  0  0  0  0  0  0  0  0  0  0  0
    7.6610    0.2840    2.4815 C   0  0  0  0  0  0  0  0  0  0  0  0
    4.5001    0.5955    5.5403 N   0  0  0  0  0  0  0  0  0  0  0  0
    8.9242    0.8686    2.3263 C   0  0  0  0  0  0  0  0  0  0  0  0
    7.0882   -0.4094    1.4079 C   0  0  0  0  0  0  0  0  0  0  0  0
    4.2083   -0.0941    4.4219 N   0  0  0  0  0  0  0  0  0  0  0  0
    3.6086    0.3227    6.5358 C   0  0  0  0  0  0  0  0  0  0  0  0
    9.6160    0.7447    1.1188 C   0  0  0  0  0  0  0  0  0  0  0  0
    7.7783   -0.5338    0.1994 C   0  0  0  0  0  0  0  0  0  0  0  0
    3.1403   -0.8377    4.6814 N   0  0  0  0  0  0  0  0  0  0  0  0
    2.7606   -0.5980    5.9717 C   0  0  0  0  0  0  0  0  0  0  0  0
    9.0399    0.0434    0.0616 C   0  0  0  0  0  0  0  0  0  0  0  0
    9.9735   -0.1240   -1.5733 Br  0  0  0  0  0  0  0  0  0  0  0  0
  1  2  1  0
  2  3  4  0
  2  4  4  0
  3  5  4  0
  4  6  4  0
  5  7  4  0
  7  8  1  0
  8  9  2  0
  8 10  1  0
  9 11  1  0
 10 12  1  0
 11 13  4  0
 11 14  4  0
 12 15  4  0
 12 16  4  0
 13 17  4  0
 14 18  4  0
 15 19  4  0
 16 20  4  0
 17 21  4  0
 21 22  1  0
  6  7  4  0
 18 21  4  0
 19 20  4  0
M  END
