
     RDKit          3D

 29 33  0  0  0  0  0  0  0  0999 V2000
   10.6174    1.2109   -0.2191 O   0  0  0  0  0  0  0  0  0  0  0  0
   10.0493    0.8984    0.8249 C   0  0  0  0  0  0  0  0  0  0  0  0
    9.0891    1.8436    1.4360 C   0  0  0  0  0  0  0  0  0  0  0  0
   10.3444   -0.3937    1.5397 C   0  0  0  0  0  0  0  0  0  0  0  0
    8.4590    1.5671    2.5905 C   0  0  0  0  0  0  0  0  0  0  0  0
    9.1633   -0.8359    2.3942 C   0  0  0  0  0  0  0  0  0  0  0  0
    7.5693    2.5585    3.1648 C   0  0  0  0  0  0  0  0  0  0  0  0
    8.6470    0.2631    3.3655 C   0  0  2  0  0  0  0  0  0  0  0  0
    6.7516    2.3449    4.2150 C   0  0  0  0  0  0  0  0  0  0  0  0
    7.2550   -0.1577    3.9463 C   0  0  2  0  0  0  0  0  0  0  0  0
    9.6941    0.4824    4.4818 C   0  0  0  0  0  0  0  0  0  0  0  0
    6.5959    0.9626    4.8526 C   0  0  2  0  0  0  0  0  0  0  0  0
    6.0981    3.5638    4.8446 C   0  0  0  0  0  0  0  0  0  0  0  0
    7.2570   -1.5383    4.6520 C   0  0  0  0  0  0  0  0  0  0  0  0
    5.1615    0.4445    5.1556 C   0  0  1  0  0  0  0  0  0  0  0  0
    6.6045    4.8863    4.2514 C   0  0  0  0  0  0  0  0  0  0  0  0
    5.8631   -1.9636    5.1284 C   0  0  0  0  0  0  0  0  0  0  0  0
    5.2211   -0.8748    5.9783 C   0  0  2  0  0  0  0  0  0  0  0  0
    4.1094    1.2611    5.9080 C   0  0  0  0  0  0  0  0  0  0  0  0
    5.6017    5.4941    3.3011 C   0  0  0  0  0  0  0  0  0  0  0  0
    3.7422   -1.0697    6.2456 C   0  0  0  0  0  0  0  0  0  0  0  0
    5.8988   -0.7711    7.3586 C   0  0  0  0  0  0  0  0  0  0  0  0
    2.9993    0.2451    6.2148 C   0  0  0  0  0  0  0  0  0  0  0  0
    6.0277    6.0890    2.1046 C   0  0  0  0  0  0  0  0  0  0  0  0
    4.2297    5.4468    3.5851 C   0  0  0  0  0  0  0  0  0  0  0  0
    3.2143   -2.1469    6.4877 O   0  0  0  0  0  0  0  0  0  0  0  0
    5.0989    6.6231    1.2095 C   0  0  0  0  0  0  0  0  0  0  0  0
    3.3028    5.9839    2.6897 C   0  0  0  0  0  0  0  0  0  0  0  0
    3.7370    6.5713    1.5022 C   0  0  0  0  0  0  0  0  0  0  0  0
  1  2  2  0
  2  3  1  0
  2  4  1  0
  3  5  2  0
  4  6  1  0
  5  7  1  0
  5  8  1  0
  7  9  2  0
  8 10  1  0
  8 11  1  1
 12  9  1  6
  9 13  1  0
 10 14  1  1
 12 15  1  0
 13 16  1  0
 14 17  1  0
 15 18  1  0
 15 19  1  1
 16 20  1  0
 18 21  1  0
 18 22  1  1
 19 23  1  0
 20 24  4  0
 20 25  4  0
 21 26  2  0
 24 27  4  0
 25 28  4  0
 27 29  4  0
  6  8  1  0
 10 12  1  0
 17 18  1  0
 21 23  1  0
 28 29  4  0
M  END
