
     RDKit          3D

 26 30  0  0  0  0  0  0  0  0999 V2000
    5.1269   -0.0332    3.7676 O   0  0  0  0  0  0  0  0  0  0  0  0
    6.0467   -0.0106    4.5713 C   0  0  0  0  0  0  0  0  0  0  0  0
    5.9693   -0.4390    5.8574 O   0  0  0  0  0  0  0  0  0  0  0  0
    7.3988    0.5239    4.2551 C   0  0  0  0  0  0  0  0  0  0  0  0
    5.9511   -1.8601    5.9977 C   0  0  0  0  0  0  0  0  0  0  0  0
    8.4994   -0.1620    4.6061 C   0  0  0  0  0  0  0  0  0  0  0  0
    7.5115    1.8243    3.4937 C   0  0  2  0  0  0  0  0  0  0  0  0
    9.7930    0.1763    4.3022 O   0  0  0  0  0  0  0  0  0  0  0  0
    8.9588    2.3542    3.5542 C   0  0  1  0  0  0  0  0  0  0  0  0
    6.5571    2.9481    3.9639 C   0  0  0  0  0  0  0  0  0  0  0  0
    9.9439    1.2040    3.3041 C   0  0  1  0  0  0  0  0  0  0  0  0
    9.1267    3.5367    2.5837 C   0  0  0  0  0  0  0  0  0  0  0  0
    7.1200    4.3628    3.7113 C   0  0  1  0  0  0  0  0  0  0  0  0
   11.4023    1.6493    3.3586 C   0  0  0  0  0  0  0  0  0  0  0  0
    7.9102    4.3510    2.4597 N   0  0  0  0  0  0  0  0  0  0  0  0
    6.0304    5.3880    3.6235 C   0  0  0  0  0  0  0  0  0  0  0  0
    8.2129    5.7066    1.9475 C   0  0  0  0  0  0  0  0  0  0  0  0
    4.9768    5.5193    4.4867 N   0  0  0  0  0  0  0  0  0  0  0  0
    5.9353    6.3938    2.6837 C   0  0  0  0  0  0  0  0  0  0  0  0
    6.9395    6.5140    1.5926 C   0  0  0  0  0  0  0  0  0  0  0  0
    4.1974    6.5955    4.1168 C   0  0  0  0  0  0  0  0  0  0  0  0
    4.7798    7.1630    2.9801 C   0  0  0  0  0  0  0  0  0  0  0  0
    3.0278    7.1018    4.6968 C   0  0  0  0  0  0  0  0  0  0  0  0
    4.1660    8.2873    2.3948 C   0  0  0  0  0  0  0  0  0  0  0  0
    2.4384    8.2195    4.0980 C   0  0  0  0  0  0  0  0  0  0  0  0
    2.9969    8.8053    2.9640 C   0  0  0  0  0  0  0  0  0  0  0  0
  1  2  2  0
  2  3  1  0
  2  4  1  0
  3  5  1  0
  4  6  2  0
  4  7  1  0
  6  8  1  0
  7  9  1  0
  7 10  1  1
  8 11  1  0
  9 12  1  6
 13 10  1  6
 11 14  1  1
 12 15  1  0
 13 16  1  0
 15 17  1  0
 16 18  4  0
 16 19  4  0
 17 20  1  0
 18 21  4  0
 19 22  4  0
 21 23  4  0
 22 24  4  0
 23 25  4  0
 24 26  4  0
  9 11  1  0
 13 15  1  0
 19 20  1  0
 21 22  4  0
 25 26  4  0
M  END
