
     RDKit          3D

 20 22  0  0  0  0  0  0  0  0999 V2000
    5.4322    3.4546    3.3929 O   0  0  0  0  0  0  0  0  0  0  0  0
    6.5465    3.9432    3.2268 C   0  0  0  0  0  0  0  0  0  0  0  0
    7.7309    3.0692    3.2384 C   0  0  0  0  0  0  0  0  0  0  0  0
    6.7774    5.3963    3.0046 C   0  0  0  0  0  0  0  0  0  0  0  0
    8.9870    3.6428    3.0519 C   0  0  0  0  0  0  0  0  0  0  0  0
    7.6208    1.6865    3.4308 C   0  0  0  0  0  0  0  0  0  0  0  0
    5.6784    6.3780    2.9848 C   0  0  0  0  0  0  0  0  0  0  0  0
    8.0515    5.7894    2.8501 C   0  0  0  0  0  0  0  0  0  0  0  0
    9.1678    4.9886    2.8587 O   0  0  0  0  0  0  0  0  0  0  0  0
   10.1301    2.8435    3.0572 C   0  0  0  0  0  0  0  0  0  0  0  0
    6.4218    1.0520    3.6192 O   0  0  0  0  0  0  0  0  0  0  0  0
    8.7587    0.8823    3.4374 C   0  0  0  0  0  0  0  0  0  0  0  0
    4.7223    6.4122    4.0139 C   0  0  0  0  0  0  0  0  0  0  0  0
    5.5682    7.3001    1.9342 C   0  0  0  0  0  0  0  0  0  0  0  0
   10.0061    1.4707    3.2499 C   0  0  0  0  0  0  0  0  0  0  0  0
    3.6762    7.3399    3.9884 C   0  0  0  0  0  0  0  0  0  0  0  0
    4.5228    8.2264    1.9070 C   0  0  0  0  0  0  0  0  0  0  0  0
   11.1479    0.7255    3.2481 O   0  0  0  0  0  0  0  0  0  0  0  0
    3.5857    8.2386    2.9318 C   0  0  0  0  0  0  0  0  0  0  0  0
    2.5833    9.1596    2.8652 O   0  0  0  0  0  0  0  0  0  0  0  0
  1  2  2  0
  2  3  4  0
  2  4  4  0
  3  5  4  0
  3  6  4  0
  4  7  1  0
  4  8  4  0
  5  9  4  0
  5 10  4  0
  6 11  1  0
  6 12  4  0
  7 13  4  0
  7 14  4  0
 10 15  4  0
 13 16  4  0
 14 17  4  0
 15 18  1  0
 16 19  4  0
 19 20  1  0
  8  9  4  0
 12 15  4  0
 17 19  4  0
M  END
