
     RDKit          3D

 24 26  0  0  0  0  0  0  0  0999 V2000
   10.1840   -0.4023    1.1715 Br  0  0  0  0  0  0  0  0  0  0  0  0
    8.8440    0.5534    2.1006 C   0  0  0  0  0  0  0  0  0  0  0  0
    7.5578    0.0244    2.1964 C   0  0  0  0  0  0  0  0  0  0  0  0
    9.1498    1.7806    2.6852 C   0  0  0  0  0  0  0  0  0  0  0  0
    6.5689    0.7280    2.8882 C   0  0  0  0  0  0  0  0  0  0  0  0
    8.1600    2.4841    3.3751 C   0  0  0  0  0  0  0  0  0  0  0  0
    6.8676    1.9579    3.4857 C   0  0  0  0  0  0  0  0  0  0  0  0
    5.8454    2.6818    4.2214 C   0  0  0  0  0  0  0  0  0  0  0  0
    4.7993    2.0933    4.8933 N   0  0  0  0  0  0  0  0  0  0  0  0
    5.6567    4.0379    4.4563 C   0  0  0  0  0  0  0  0  0  0  0  0
    4.0041    3.0144    5.4712 N   0  0  0  0  0  0  0  0  0  0  0  0
    4.4515    0.6840    4.9895 C   0  0  0  0  0  0  0  0  0  0  0  0
    4.5236    4.2059    5.2208 N   0  0  0  0  0  0  0  0  0  0  0  0
    6.4753    5.1505    3.9970 C   0  0  0  0  0  0  0  0  0  0  0  0
    5.1793   -0.0078    6.1158 C   0  0  0  0  0  0  0  0  0  0  0  0
    7.6884    5.2216    4.1620 O   0  0  0  0  0  0  0  0  0  0  0  0
    5.7368    6.1048    3.3551 O   0  0  0  0  0  0  0  0  0  0  0  0
    6.4978   -0.4549    5.9413 C   0  0  0  0  0  0  0  0  0  0  0  0
    4.5482   -0.2278    7.3499 C   0  0  0  0  0  0  0  0  0  0  0  0
    5.7029    6.0209    1.9244 C   0  0  0  0  0  0  0  0  0  0  0  0
    7.1734   -1.0934    6.9824 C   0  0  0  0  0  0  0  0  0  0  0  0
    5.2259   -0.8675    8.3886 C   0  0  0  0  0  0  0  0  0  0  0  0
    5.1231    7.2944    1.3381 C   0  0  0  0  0  0  0  0  0  0  0  0
    6.5380   -1.2987    8.2051 C   0  0  0  0  0  0  0  0  0  0  0  0
  1  2  1  0
  2  3  4  0
  2  4  4  0
  3  5  4  0
  4  6  4  0
  5  7  4  0
  7  8  1  0
  8  9  4  0
  8 10  4  0
  9 11  4  0
  9 12  1  0
 10 13  4  0
 10 14  1  0
 12 15  1  0
 14 16  2  0
 14 17  1  0
 15 18  4  0
 15 19  4  0
 17 20  1  0
 18 21  4  0
 19 22  4  0
 20 23  1  0
 21 24  4  0
  6  7  4  0
 11 13  4  0
 22 24  4  0
M  END
