
     RDKit          3D

 23 26  0  0  0  0  0  0  0  0999 V2000
    4.9090    6.0233    5.5965 F   0  0  0  0  0  0  0  0  0  0  0  0
    5.4653    4.8588    5.1717 C   0  0  0  0  0  0  0  0  0  0  0  0
    4.6950    3.8707    5.6911 F   0  0  0  0  0  0  0  0  0  0  0  0
    5.4770    4.7957    3.6198 C   0  0  1  0  0  0  0  0  0  0  0  0
    6.1897    6.0472    3.0703 C   0  0  0  0  0  0  0  0  0  0  0  0
    6.2303    3.5131    3.0813 C   0  0  1  0  0  0  0  0  0  0  0  0
    4.0104    4.7501    3.0887 C   0  0  0  0  0  0  0  0  0  0  0  0
    5.5491    7.0801    2.4937 C   0  0  0  0  0  0  0  0  0  0  0  0
    7.6900    6.0974    3.2333 C   0  0  0  0  0  0  0  0  0  0  0  0
    7.7758    3.5727    3.3186 C   0  0  2  0  0  0  0  0  0  0  0  0
    5.6201    2.1614    3.5485 C   0  0  0  0  0  0  0  0  0  0  0  0
    3.2799    6.0848    3.1366 C   0  0  0  0  0  0  0  0  0  0  0  0
    4.0710    7.1441    2.4168 C   0  0  0  0  0  0  0  0  0  0  0  0
    8.3619    4.8437    2.6896 C   0  0  0  0  0  0  0  0  0  0  0  0
    8.4064    2.3130    2.7153 C   0  0  2  0  0  0  0  0  0  0  0  0
    6.3826    0.9240    3.0395 C   0  0  0  0  0  0  0  0  0  0  0  0
    3.5383    8.0812    1.8284 O   0  0  0  0  0  0  0  0  0  0  0  0
    7.8673    1.0269    3.3725 C   0  0  1  0  0  0  0  0  0  0  0  0
    9.9210    2.1347    2.7348 C   0  0  0  0  0  0  0  0  0  0  0  0
    8.7870    0.0294    2.6912 C   0  0  0  0  0  0  0  0  0  0  0  0
    8.1160    0.8910    4.8860 C   0  0  0  0  0  0  0  0  0  0  0  0
   10.0974    0.6783    2.2784 C   0  0  0  0  0  0  0  0  0  0  0  0
    8.5251   -1.1529    2.5172 O   0  0  0  0  0  0  0  0  0  0  0  0
  1  2  1  0
  2  3  1  0
  4  2  1  1
  4  5  1  0
  4  6  1  0
  4  7  1  0
  5  8  2  0
  5  9  1  0
  6 10  1  0
  6 11  1  1
  7 12  1  0
  8 13  1  0
  9 14  1  0
 10 15  1  0
 11 16  1  0
 13 17  2  0
 15 18  1  0
 15 19  1  1
 18 20  1  0
 18 21  1  1
 19 22  1  0
 20 23  2  0
 10 14  1  6
 12 13  1  0
 16 18  1  0
 20 22  1  0
M  END
