
     RDKit          3D

 21 24  0  0  0  0  0  0  0  0999 V2000
    3.2709   -0.1859    1.6519 O   0  0  0  0  0  0  0  0  0  0  0  0
    4.0190    0.5872    2.2366 C   0  0  0  0  0  0  0  0  0  0  0  0
    3.6478    1.9993    2.4558 C   0  0  0  0  0  0  0  0  0  0  0  0
    5.3334    0.1493    2.7404 C   0  0  0  0  0  0  0  0  0  0  0  0
    4.4533    2.8531    3.1128 C   0  0  0  0  0  0  0  0  0  0  0  0
    6.1371    0.9964    3.3969 C   0  0  0  0  0  0  0  0  0  0  0  0
    5.8126    2.4547    3.7048 C   0  0  1  0  0  0  0  0  0  0  0  0
    4.0670    4.3049    3.2461 C   0  0  0  0  0  0  0  0  0  0  0  0
    6.9036    3.4027    3.0804 C   0  0  1  0  0  0  0  0  0  0  0  0
    5.7459    2.5623    5.2445 C   0  0  0  0  0  0  0  0  0  0  0  0
    5.1392    5.1997    2.6326 C   0  0  0  0  0  0  0  0  0  0  0  0
    6.5258    4.9166    3.2301 C   0  0  2  0  0  0  0  0  0  0  0  0
    8.3529    3.1286    3.5742 C   0  0  0  0  0  0  0  0  0  0  0  0
    7.6096    5.7627    2.5548 C   0  0  2  0  0  0  0  0  0  0  0  0
    9.3995    4.0886    2.9787 C   0  0  0  0  0  0  0  0  0  0  0  0
    9.0015    5.5553    3.1823 C   0  0  1  0  0  0  0  0  0  0  0  0
    7.4567    7.2812    2.5225 C   0  0  0  0  0  0  0  0  0  0  0  0
    9.8077    6.5660    2.3428 C   0  0  1  0  0  0  0  0  0  0  0  0
    9.0935    5.9122    4.6877 C   0  0  0  0  0  0  0  0  0  0  0  0
    8.8817    7.7934    2.2453 C   0  0  0  0  0  0  0  0  0  0  0  0
   11.0521    6.9176    2.9155 O   0  0  0  0  0  0  0  0  0  0  0  0
  1  2  2  0
  2  3  1  0
  2  4  1  0
  3  5  2  0
  4  6  2  0
  5  7  1  0
  5  8  1  0
  7  9  1  0
  7 10  1  1
  8 11  1  0
  9 12  1  0
  9 13  1  1
 12 14  1  0
 13 15  1  0
 14 16  1  0
 14 17  1  1
 16 18  1  0
 16 19  1  1
 17 20  1  0
 18 21  1  1
  6  7  1  0
 12 11  1  6
 15 16  1  0
 18 20  1  0
M  END
