
     RDKit          3D

 28 31  0  0  0  0  0  0  0  0999 V2000
   10.6195   -1.2368    1.7314 O   0  0  0  0  0  0  0  0  0  0  0  0
    9.8469   -0.6755    2.4978 C   0  0  0  0  0  0  0  0  0  0  0  0
    9.8266    0.8228    2.7638 C   0  0  2  0  0  0  0  0  0  0  0  0
    8.8062   -1.4048    3.3303 C   0  0  0  0  0  0  0  0  0  0  0  0
    8.3705    0.9427    3.2328 C   0  0  1  0  0  0  0  0  0  0  0  0
   10.0002    1.7197    1.5327 C   0  0  0  0  0  0  0  0  0  0  0  0
   10.9028    1.0736    3.8344 C   0  0  0  0  0  0  0  0  0  0  0  0
    8.1451   -0.2722    4.1269 C   0  0  0  0  0  0  0  0  0  0  0  0
    8.0052    2.3368    3.7787 C   0  0  1  0  0  0  0  0  0  0  0  0
    9.0806    2.9699    1.5452 C   0  0  0  0  0  0  0  0  0  0  0  0
    8.7562    3.4675    2.9746 C   0  0  1  0  0  0  0  0  0  0  0  0
    6.4625    2.4585    3.7535 C   0  0  0  0  0  0  0  0  0  0  0  0
    8.1007    4.8970    3.1179 C   0  0  2  0  0  0  0  0  0  0  0  0
    5.9454    3.8672    4.0601 C   0  0  1  0  0  0  0  0  0  0  0  0
    6.5728    4.7902    3.0211 C   0  0  0  0  0  0  0  0  0  0  0  0
    8.6812    5.9394    2.1091 C   0  0  0  0  0  0  0  0  0  0  0  0
    8.4930    5.4526    4.5220 C   0  0  0  0  0  0  0  0  0  0  0  0
    4.4017    3.8420    4.1807 C   0  0  0  0  0  0  0  0  0  0  0  0
    5.8709    5.4268    2.0630 C   0  0  0  0  0  0  0  0  0  0  0  0
    7.9422    6.0113    0.7770 C   0  0  0  0  0  0  0  0  0  0  0  0
    3.7962    4.8103    5.2108 C   0  0  0  0  0  0  0  0  0  0  0  0
    6.4639    6.2891    0.9933 C   0  0  0  0  0  0  0  0  0  0  0  0
    3.9805    6.3038    4.9196 C   0  0  0  0  0  0  0  0  0  0  0  0
    2.9231    6.8741    3.9714 C   0  0  0  0  0  0  0  0  0  0  0  0
    3.0945    6.4032    2.5238 C   0  0  0  0  0  0  0  0  0  0  0  0
    3.4503    7.5371    1.5587 C   0  0  0  0  0  0  0  0  0  0  0  0
    3.4842    7.0427    0.1122 C   0  0  0  0  0  0  0  0  0  0  0  0
    2.2221    6.2730   -0.2424 C   0  0  0  0  0  0  0  0  0  0  0  0
  1  2  2  0
  2  3  1  0
  2  4  1  0
  3  5  1  0
  3  6  1  0
  3  7  1  1
  4  8  1  0
  5  9  1  0
  6 10  1  0
  9 11  1  0
  9 12  1  6
 11 13  1  0
 12 14  1  0
 13 15  1  0
 13 16  1  0
 13 17  1  1
 14 18  1  6
 15 19  2  0
 16 20  1  0
 18 21  1  0
 19 22  1  0
 21 23  1  0
 23 24  1  0
 24 25  1  0
 25 26  1  0
 26 27  1  0
 27 28  1  0
  5  8  1  1
 11 10  1  6
 14 15  1  0
 20 22  1  0
M  END
