
     RDKit          3D

 24 27  0  0  0  0  0  0  0  0999 V2000
    6.9068   -0.5169   -0.8256 Br  0  0  0  0  0  0  0  0  0  0  0  0
    7.6513    0.0530    0.8927 C   0  0  1  0  0  0  0  0  0  0  0  0
    6.6326    0.2381    2.0103 C   0  0  0  0  0  0  0  0  0  0  0  0
    8.7399   -0.9463    1.2779 C   0  0  0  0  0  0  0  0  0  0  0  0
    5.3083    0.0277    1.8732 C   0  0  0  0  0  0  0  0  0  0  0  0
    7.2552    0.6855    3.3516 C   0  0  2  0  0  0  0  0  0  0  0  0
    9.4596   -0.5038    2.5562 C   0  0  1  0  0  0  0  0  0  0  0  0
    4.3119    0.2838    2.9436 C   0  0  0  0  0  0  0  0  0  0  0  0
    8.4339   -0.3088    3.7190 C   0  0  1  0  0  0  0  0  0  0  0  0
    6.2078    0.6209    4.5104 C   0  0  0  0  0  0  0  0  0  0  0  0
    7.7859    2.1329    3.2162 C   0  0  0  0  0  0  0  0  0  0  0  0
   10.5064   -1.5265    3.0072 C   0  0  2  0  0  0  0  0  0  0  0  0
    3.1475   -0.0628    2.7549 O   0  0  0  0  0  0  0  0  0  0  0  0
    4.7621    1.0394    4.1831 C   0  0  2  0  0  0  0  0  0  0  0  0
    9.1447    0.0236    5.0632 C   0  0  0  0  0  0  0  0  0  0  0  0
   11.2889   -1.0320    4.2410 C   0  0  1  0  0  0  0  0  0  0  0  0
   11.5901   -1.9886    2.0391 C   0  0  0  0  0  0  0  0  0  0  0  0
    3.8671    0.6498    5.3761 C   0  0  0  0  0  0  0  0  0  0  0  0
    4.5976    2.5420    3.9259 C   0  0  0  0  0  0  0  0  0  0  0  0
   10.3077   -0.9275    5.4037 C   0  0  0  0  0  0  0  0  0  0  0  0
   12.3134   -2.1499    4.3133 C   0  0  0  0  0  0  0  0  0  0  0  0
   12.0800    0.2765    4.0582 C   0  0  0  0  0  0  0  0  0  0  0  0
   12.5429   -2.7788    2.9491 C   0  0  0  0  0  0  0  0  0  0  0  0
   12.9032   -2.4884    5.3305 O   0  0  0  0  0  0  0  0  0  0  0  0
  2  1  1  6
  2  3  1  0
  2  4  1  0
  3  5  2  0
  3  6  1  0
  7  4  1  6
  5  8  1  0
  6  9  1  0
  6 10  1  0
  6 11  1  6
  7 12  1  0
  8 13  2  0
  8 14  1  0
  9 15  1  1
 12 16  1  0
 12 17  1  6
 14 18  1  1
 14 19  1  0
 15 20  1  0
 16 21  1  0
 16 22  1  6
 17 23  1  0
 21 24  2  0
  7  9  1  0
 10 14  1  0
 16 20  1  0
 21 23  1  0
M  END
