
     RDKit          3D

 29 33  0  0  0  0  0  0  0  0999 V2000
    1.2837   -1.4279    5.4343 O   0  0  0  0  0  0  0  0  0  0  0  0
    2.4304   -1.0264    5.2465 C   0  0  0  0  0  0  0  0  0  0  0  0
    2.9338   -0.9087    3.8583 C   0  0  0  0  0  0  0  0  0  0  0  0
    3.3186   -0.5982    6.3807 C   0  0  0  0  0  0  0  0  0  0  0  0
    4.1557   -0.4276    3.5559 C   0  0  0  0  0  0  0  0  0  0  0  0
    4.7867   -0.7050    5.9975 C   0  0  0  0  0  0  0  0  0  0  0  0
    4.6159   -0.3089    2.1568 C   0  0  0  0  0  0  0  0  0  0  0  0
    5.1384    0.0163    4.6660 C   0  0  1  0  0  0  0  0  0  0  0  0
    5.8896    0.0195    1.8618 C   0  0  0  0  0  0  0  0  0  0  0  0
    3.6383   -0.4937    1.0042 C   0  0  0  0  0  0  0  0  0  0  0  0
    6.5926   -0.3869    4.2413 C   0  0  1  0  0  0  0  0  0  0  0  0
    5.0002    1.5442    4.8710 C   0  0  0  0  0  0  0  0  0  0  0  0
    6.9756    0.2508    2.8731 C   0  0  1  0  0  0  0  0  0  0  0  0
    2.3809    0.3717    1.1633 C   0  0  0  0  0  0  0  0  0  0  0  0
    7.6959   -0.1505    5.3059 C   0  0  0  0  0  0  0  0  0  0  0  0
    8.3347   -0.3288    2.4641 C   0  0  2  0  0  0  0  0  0  0  0  0
    2.1137    1.1936   -0.0736 C   0  0  0  0  0  0  0  0  0  0  0  0
    9.0986   -0.5707    4.8213 C   0  0  0  0  0  0  0  0  0  0  0  0
    9.4329    0.0702    3.4773 C   0  0  1  0  0  0  0  0  0  0  0  0
    8.9476    0.0091    1.1079 C   0  0  0  0  0  0  0  0  0  0  0  0
    1.1078    2.1691   -0.0737 C   0  0  0  0  0  0  0  0  0  0  0  0
    2.8863    1.0122   -1.2284 C   0  0  0  0  0  0  0  0  0  0  0  0
   10.6300   -0.4915    2.7330 C   0  0  0  0  0  0  0  0  0  0  0  0
    9.6905    1.5810    3.6371 C   0  0  0  0  0  0  0  0  0  0  0  0
   10.3774   -0.5386    1.2355 C   0  0  0  0  0  0  0  0  0  0  0  0
    0.8737    2.9422   -1.2119 C   0  0  0  0  0  0  0  0  0  0  0  0
    2.6503    1.7865   -2.3654 C   0  0  0  0  0  0  0  0  0  0  0  0
   11.6783   -0.8374    3.2609 O   0  0  0  0  0  0  0  0  0  0  0  0
    1.6442    2.7504   -2.3572 C   0  0  0  0  0  0  0  0  0  0  0  0
  1  2  2  0
  2  3  1  0
  2  4  1  0
  3  5  2  0
  4  6  1  0
  5  7  1  0
  5  8  1  0
  7  9  2  0
  7 10  1  0
  8 11  1  0
  8 12  1  1
 13  9  1  6
 10 14  1  0
 11 15  1  1
 13 16  1  0
 14 17  1  0
 15 18  1  0
 16 19  1  0
 16 20  1  6
 17 21  4  0
 17 22  4  0
 19 23  1  0
 19 24  1  1
 20 25  1  0
 21 26  4  0
 22 27  4  0
 23 28  2  0
 26 29  4  0
  6  8  1  0
 11 13  1  0
 18 19  1  0
 23 25  1  0
 27 29  4  0
M  END
