
     RDKit          3D

 21 24  0  0  0  0  0  0  0  0999 V2000
    3.4452    8.6301    2.2830 O   0  0  0  0  0  0  0  0  0  0  0  0
    3.9924    7.5806    2.6151 C   0  0  0  0  0  0  0  0  0  0  0  0
    5.4627    7.4629    2.4891 C   0  0  0  0  0  0  0  0  0  0  0  0
    3.2165    6.4271    3.1972 C   0  0  0  0  0  0  0  0  0  0  0  0
    6.1249    6.3669    2.8975 C   0  0  0  0  0  0  0  0  0  0  0  0
    3.9531    5.1044    3.0187 C   0  0  0  0  0  0  0  0  0  0  0  0
    7.5697    6.3115    2.7326 C   0  0  0  0  0  0  0  0  0  0  0  0
    5.4250    5.1437    3.5125 C   0  0  1  0  0  0  0  0  0  0  0  0
    8.2965    5.2093    2.9642 C   0  0  0  0  0  0  0  0  0  0  0  0
    6.1732    3.8476    3.0381 C   0  0  1  0  0  0  0  0  0  0  0  0
    5.4403    5.2811    5.0532 C   0  0  0  0  0  0  0  0  0  0  0  0
    7.6958    3.8996    3.3968 C   0  0  1  0  0  0  0  0  0  0  0  0
    5.5295    2.5073    3.4775 C   0  0  0  0  0  0  0  0  0  0  0  0
    8.3553    2.6749    2.7535 C   0  0  2  0  0  0  0  0  0  0  0  0
    6.3064    1.2749    2.9721 C   0  0  0  0  0  0  0  0  0  0  0  0
    7.7844    1.3640    3.3431 C   0  0  1  0  0  0  0  0  0  0  0  0
    9.8673    2.4813    2.8259 C   0  0  0  0  0  0  0  0  0  0  0  0
    8.7200    0.3895    2.6518 C   0  0  0  0  0  0  0  0  0  0  0  0
    7.9851    1.1592    4.8572 C   0  0  0  0  0  0  0  0  0  0  0  0
   10.0499    1.0432    2.3166 C   0  0  0  0  0  0  0  0  0  0  0  0
    8.4556   -0.7819    2.4168 O   0  0  0  0  0  0  0  0  0  0  0  0
  1  2  2  0
  2  3  1  0
  2  4  1  0
  3  5  2  0
  4  6  1  0
  5  7  1  0
  5  8  1  0
  7  9  2  0
  8 10  1  0
  8 11  1  1
 12  9  1  6
 10 13  1  1
 12 14  1  0
 13 15  1  0
 14 16  1  0
 14 17  1  1
 16 18  1  0
 16 19  1  1
 17 20  1  0
 18 21  2  0
  6  8  1  0
 10 12  1  0
 15 16  1  0
 18 20  1  0
M  END
