
     RDKit          3D

 22 24  0  0  0  0  0  0  0  0999 V2000
    8.9134   -1.1722    0.3331 O   0  0  0  0  0  0  0  0  0  0  0  0
    8.5192   -0.3827    1.1818 C   0  0  0  0  0  0  0  0  0  0  0  0
    9.1833    0.9191    1.3898 C   0  0  0  0  0  0  0  0  0  0  0  0
    7.3552   -0.6881    2.0329 C   0  0  0  0  0  0  0  0  0  0  0  0
    8.7673    1.7865    2.3299 C   0  0  0  0  0  0  0  0  0  0  0  0
    6.9419    0.1747    2.9709 C   0  0  0  0  0  0  0  0  0  0  0  0
    7.5922    1.5219    3.2757 C   0  0  2  0  0  0  0  0  0  0  0  0
    9.4261    3.1316    2.4621 C   0  0  0  0  0  0  0  0  0  0  0  0
    6.5488    2.6900    3.0924 C   0  0  2  0  0  0  0  0  0  0  0  0
    8.1196    1.4243    4.7251 C   0  0  0  0  0  0  0  0  0  0  0  0
    8.4013    4.2420    2.2651 C   0  0  0  0  0  0  0  0  0  0  0  0
    7.1892    4.1109    3.2121 C   0  0  1  0  0  0  0  0  0  0  0  0
    5.3354    2.5844    4.0386 C   0  0  0  0  0  0  0  0  0  0  0  0
    6.1350    5.2347    2.9432 C   0  0  1  0  0  0  0  0  0  0  0  0
    4.2998    3.6669    3.7542 C   0  0  0  0  0  0  0  0  0  0  0  0
    4.8670    5.0980    3.8505 C   0  0  2  0  0  0  0  0  0  0  0  0
    6.7576    6.6391    3.0476 C   0  0  0  0  0  0  0  0  0  0  0  0
    3.7497    6.0506    3.3798 C   0  0  0  0  0  0  0  0  0  0  0  0
    5.1815    5.4311    5.3271 C   0  0  0  0  0  0  0  0  0  0  0  0
    2.9639    5.8076    2.4724 O   0  0  0  0  0  0  0  0  0  0  0  0
    3.7604    7.2154    4.0891 O   0  0  0  0  0  0  0  0  0  0  0  0
    2.5509    7.4785    4.8016 C   0  0  0  0  0  0  0  0  0  0  0  0
  1  2  2  0
  2  3  1  0
  2  4  1  0
  3  5  2  0
  4  6  2  0
  5  7  1  0
  5  8  1  0
  7  9  1  0
  7 10  1  1
  8 11  1  0
  9 12  1  0
  9 13  1  1
 12 14  1  0
 13 15  1  0
 14 16  1  0
 14 17  1  1
 16 18  1  0
 16 19  1  1
 18 20  2  0
 18 21  1  0
 21 22  1  0
  6  7  1  0
 12 11  1  6
 15 16  1  0
M  END
