
     RDKit          3D

 24 26  0  0  0  0  0  0  0  0999 V2000
    4.7742    5.9584    4.6710 O   0  0  0  0  0  0  0  0  0  0  0  0
    4.1783    4.8941    4.5822 C   0  0  0  0  0  0  0  0  0  0  0  0
    4.1621    4.0826    3.4925 O   0  0  0  0  0  0  0  0  0  0  0  0
    3.3617    4.2858    5.6806 C   0  0  0  0  0  0  0  0  0  0  0  0
    5.3071    3.2331    3.3021 C   0  0  2  0  0  0  0  0  0  0  0  0
    5.0761    1.9012    4.0049 C   0  0  0  0  0  0  0  0  0  0  0  0
    6.6164    3.9346    3.7754 C   0  0  2  0  0  0  0  0  0  0  0  0
    4.9716    0.6993    3.2874 C   0  0  0  0  0  0  0  0  0  0  0  0
    4.9482    1.8613    5.4026 C   0  0  0  0  0  0  0  0  0  0  0  0
    7.0826    5.1130    2.9222 C   0  0  0  0  0  0  0  0  0  0  0  0
    7.7679    2.9531    4.1082 C   0  0  0  0  0  0  0  0  0  0  0  0
    4.7410   -0.5080    3.9487 C   0  0  0  0  0  0  0  0  0  0  0  0
    4.7204    0.6521    6.0625 C   0  0  0  0  0  0  0  0  0  0  0  0
    6.2632    5.5730    1.8756 C   0  0  0  0  0  0  0  0  0  0  0  0
    8.3072    5.7604    3.1347 C   0  0  0  0  0  0  0  0  0  0  0  0
    8.4907    2.3601    3.0078 N   0  0  0  0  0  0  0  0  0  0  0  0
    4.6154   -0.5314    5.3355 C   0  0  0  0  0  0  0  0  0  0  0  0
    6.6561    6.6465    1.0735 C   0  0  0  0  0  0  0  0  0  0  0  0
    8.6982    6.8361    2.3335 C   0  0  0  0  0  0  0  0  0  0  0  0
    8.1074    1.1892    2.4742 N   0  0  0  0  0  0  0  0  0  0  0  0
    9.5161    2.9098    2.2938 C   0  0  0  0  0  0  0  0  0  0  0  0
    7.8734    7.2796    1.3040 C   0  0  0  0  0  0  0  0  0  0  0  0
    8.9133    0.9292    1.4532 N   0  0  0  0  0  0  0  0  0  0  0  0
    9.7766    1.9775    1.3199 C   0  0  0  0  0  0  0  0  0  0  0  0
  1  2  2  0
  2  3  1  0
  2  4  1  0
  5  3  1  1
  5  6  1  0
  5  7  1  0
  6  8  4  0
  6  9  4  0
  7 10  1  0
  7 11  1  6
  8 12  4  0
  9 13  4  0
 10 14  4  0
 10 15  4  0
 11 16  1  0
 12 17  4  0
 14 18  4  0
 15 19  4  0
 16 20  4  0
 16 21  4  0
 18 22  4  0
 20 23  4  0
 21 24  4  0
 13 17  4  0
 19 22  4  0
 23 24  4  0
M  END
