
     RDKit          3D

 36 40  0  0  0  0  0  0  0  0999 V2000
    7.2840    5.5714    4.9831 Cl  0  0  0  0  0  0  0  0  0  0  0  0
    5.7532    5.4346    4.1888 C   0  0  0  0  0  0  0  0  0  0  0  0
    5.2860    4.2307    3.6225 C   0  0  0  0  0  0  0  0  0  0  0  0
    4.9749    6.5990    4.1529 C   0  0  0  0  0  0  0  0  0  0  0  0
    3.9945    4.2422    3.0498 C   0  0  0  0  0  0  0  0  0  0  0  0
    6.0979    2.9300    3.6168 C   0  0  2  0  0  0  0  0  0  0  0  0
    3.7154    6.5786    3.5653 C   0  0  0  0  0  0  0  0  0  0  0  0
    3.2180    5.4032    3.0194 C   0  0  0  0  0  0  0  0  0  0  0  0
    5.2440    1.8383    3.2078 O   0  0  0  0  0  0  0  0  0  0  0  0
    6.5600    2.6188    4.9594 O   0  0  0  0  0  0  0  0  0  0  0  0
    7.3192    2.9665    2.6722 C   0  0  0  0  0  0  0  0  0  0  0  0
    2.7669    8.0122    3.5190 Cl  0  0  0  0  0  0  0  0  0  0  0  0
    4.7735    1.2606    4.4313 C   0  0  2  0  0  0  0  0  0  0  0  0
    6.0072    1.3423    5.2869 C   0  0  0  0  0  0  0  0  0  0  0  0
    7.8277    4.2946    2.3970 N   0  0  0  0  0  0  0  0  0  0  0  0
    4.2667   -0.1650    4.2295 C   0  0  0  0  0  0  0  0  0  0  0  0
    8.9519    4.8492    2.9393 C   0  0  0  0  0  0  0  0  0  0  0  0
    7.2503    5.2345    1.5904 C   0  0  0  0  0  0  0  0  0  0  0  0
    5.3139   -1.0526    3.8249 O   0  0  0  0  0  0  0  0  0  0  0  0
    9.1380    6.0748    2.5036 N   0  0  0  0  0  0  0  0  0  0  0  0
    8.0830    6.3260    1.6651 C   0  0  0  0  0  0  0  0  0  0  0  0
    5.8935   -1.8566    4.7635 C   0  0  0  0  0  0  0  0  0  0  0  0
    7.2416   -1.5938    5.0022 C   0  0  0  0  0  0  0  0  0  0  0  0
    5.2689   -2.8711    5.4801 C   0  0  0  0  0  0  0  0  0  0  0  0
    7.9689   -2.3522    5.9272 C   0  0  0  0  0  0  0  0  0  0  0  0
    6.0027   -3.6314    6.4007 C   0  0  0  0  0  0  0  0  0  0  0  0
    7.3641   -3.3907    6.6424 C   0  0  0  0  0  0  0  0  0  0  0  0
    8.0455   -4.2035    7.5599 N   0  0  0  0  0  0  0  0  0  0  0  0
    8.6319   -5.4772    7.0855 C   0  0  0  0  0  0  0  0  0  0  0  0
    7.3463   -4.2694    8.8677 C   0  0  0  0  0  0  0  0  0  0  0  0
    7.8562   -6.7007    7.5962 C   0  0  0  0  0  0  0  0  0  0  0  0
    7.8511   -5.4322    9.7420 C   0  0  0  0  0  0  0  0  0  0  0  0
    7.7690   -6.7314    9.0611 N   0  0  0  0  0  0  0  0  0  0  0  0
    7.6478   -7.9538    9.6965 C   0  0  0  0  0  0  0  0  0  0  0  0
    6.5569   -8.4387    9.9957 O   0  0  0  0  0  0  0  0  0  0  0  0
    8.9236   -8.6866   10.0250 C   0  0  0  0  0  0  0  0  0  0  0  0
  1  2  1  0
  2  3  4  0
  2  4  4  0
  3  5  4  0
  3  6  1  0
  4  7  4  0
  5  8  4  0
  6  9  1  0
  6 10  1  0
  6 11  1  6
  7 12  1  0
  9 13  1  0
 10 14  1  0
 11 15  1  0
 13 16  1  6
 15 17  4  0
 15 18  4  0
 16 19  1  0
 17 20  4  0
 18 21  4  0
 19 22  1  0
 22 23  4  0
 22 24  4  0
 23 25  4  0
 24 26  4  0
 25 27  4  0
 27 28  1  0
 28 29  1  0
 28 30  1  0
 29 31  1  0
 30 32  1  0
 31 33  1  0
 33 34  1  0
 34 35  2  0
 34 36  1  0
  7  8  4  0
 13 14  1  0
 20 21  4  0
 26 27  4  0
 32 33  1  0
M  END
