
     RDKit          3D

 23 26  0  0  0  0  0  0  0  0999 V2000
    3.5560    8.1840    1.8081 O   0  0  0  0  0  0  0  0  0  0  0  0
    4.0779    7.2044    2.3348 C   0  0  0  0  0  0  0  0  0  0  0  0
    5.5533    7.1069    2.3869 C   0  0  0  0  0  0  0  0  0  0  0  0
    3.2725    6.1229    3.0000 C   0  0  0  0  0  0  0  0  0  0  0  0
    6.1807    6.0502    2.9357 C   0  0  0  0  0  0  0  0  0  0  0  0
    3.9993    4.7864    2.9102 C   0  0  0  0  0  0  0  0  0  0  0  0
    5.4494    4.8117    3.4932 C   0  0  2  0  0  0  0  0  0  0  0  0
    7.6902    6.0690    3.0390 C   0  0  0  0  0  0  0  0  0  0  0  0
    5.4895    4.8843    5.0255 C   0  0  0  0  0  0  0  0  0  0  0  0
    6.1883    3.5062    2.9875 C   0  0  1  0  0  0  0  0  0  0  0  0
    8.3265    4.7839    2.5247 C   0  0  0  0  0  0  0  0  0  0  0  0
    4.7283    5.6220    5.8524 C   0  0  0  0  0  0  0  0  0  0  0  0
    7.7340    3.5521    3.2191 C   0  0  2  0  0  0  0  0  0  0  0  0
    5.5510    2.1852    3.5124 C   0  0  0  0  0  0  0  0  0  0  0  0
    4.8598    5.5984    7.3427 C   0  0  0  0  0  0  0  0  0  0  0  0
    8.3436    2.2545    2.6822 C   0  0  2  0  0  0  0  0  0  0  0  0
    6.3021    0.9122    3.0823 C   0  0  0  0  0  0  0  0  0  0  0  0
    7.7866    1.0163    3.4129 C   0  0  1  0  0  0  0  0  0  0  0  0
    9.8554    2.0565    2.7124 C   0  0  0  0  0  0  0  0  0  0  0  0
    8.6938   -0.0318    2.7941 C   0  0  0  0  0  0  0  0  0  0  0  0
    8.0284    0.9658    4.9327 C   0  0  0  0  0  0  0  0  0  0  0  0
   10.0115    0.5741    2.3422 C   0  0  0  0  0  0  0  0  0  0  0  0
    8.4178   -1.2196    2.6924 O   0  0  0  0  0  0  0  0  0  0  0  0
  1  2  2  0
  2  3  1  0
  2  4  1  0
  3  5  2  0
  4  6  1  0
  5  7  1  0
  5  8  1  0
  7  9  1  1
  7 10  1  0
  8 11  1  0
  9 12  2  0
 10 13  1  0
 10 14  1  1
 12 15  1  0
 13 16  1  0
 14 17  1  0
 16 18  1  0
 16 19  1  1
 18 20  1  0
 18 21  1  1
 19 22  1  0
 20 23  2  0
  6  7  1  0
 13 11  1  6
 17 18  1  0
 20 22  1  0
M  END
