
     RDKit          3D

 37 40  0  0  0  0  0  0  0  0999 V2000
    3.7779    8.2263    1.8942 F   0  0  0  0  0  0  0  0  0  0  0  0
    4.2809    7.0745    2.3607 C   0  0  0  0  0  0  0  0  0  0  0  0
    5.4782    6.5917    1.8355 C   0  0  0  0  0  0  0  0  0  0  0  0
    3.5990    6.3809    3.3564 C   0  0  0  0  0  0  0  0  0  0  0  0
    6.0155    5.3967    2.3206 C   0  0  0  0  0  0  0  0  0  0  0  0
    4.1247    5.1822    3.8418 C   0  0  0  0  0  0  0  0  0  0  0  0
    5.3390    4.6956    3.3321 C   0  0  0  0  0  0  0  0  0  0  0  0
    5.8624    3.4150    3.8659 C   0  0  0  0  0  0  0  0  0  0  0  0
    7.0676    3.2758    4.0269 O   0  0  0  0  0  0  0  0  0  0  0  0
    4.9248    2.4415    4.1087 N   0  0  0  0  0  0  0  0  0  0  0  0
    4.6069    2.0171    5.4672 C   0  0  0  0  0  0  0  0  0  0  0  0
    5.1392    0.5904    5.8379 C   0  0  0  0  0  0  0  0  0  0  0  0
    5.6821   -0.1447    4.6561 N   0  0  0  0  0  0  0  0  0  0  0  0
    4.0603   -0.2131    6.5698 C   0  0  0  0  0  0  0  0  0  0  0  0
    7.1138    0.1366    4.4030 C   0  0  0  0  0  0  0  0  0  0  0  0
    5.5658   -1.6195    4.7722 C   0  0  0  0  0  0  0  0  0  0  0  0
    2.8193   -0.4812    5.9720 C   0  0  0  0  0  0  0  0  0  0  0  0
    4.3152   -0.7290    7.8538 C   0  0  0  0  0  0  0  0  0  0  0  0
    8.0668   -0.4221    5.4874 C   0  0  0  0  0  0  0  0  0  0  0  0
    6.4870   -2.2658    5.8354 C   0  0  0  0  0  0  0  0  0  0  0  0
    1.8625   -1.2509    6.6372 C   0  0  0  0  0  0  0  0  0  0  0  0
    3.3592   -1.5018    8.5154 C   0  0  0  0  0  0  0  0  0  0  0  0
    7.8910   -1.8609    5.7102 N   0  0  0  0  0  0  0  0  0  0  0  0
    2.1350   -1.7627    7.9030 C   0  0  0  0  0  0  0  0  0  0  0  0
    8.8005   -2.4257    6.7127 C   0  0  0  0  0  0  0  0  0  0  0  0
    9.0006   -3.9583    6.8216 C   0  0  0  0  0  0  0  0  0  0  0  0
    8.7100   -4.5372    5.5386 O   0  0  0  0  0  0  0  0  0  0  0  0
   10.3954   -4.4245    7.2672 C   0  0  0  0  0  0  0  0  0  0  0  0
   11.3708   -3.4637    6.8530 O   0  0  0  0  0  0  0  0  0  0  0  0
   11.6907   -3.5109    5.5218 C   0  0  0  0  0  0  0  0  0  0  0  0
   11.4660   -2.4739    4.6154 C   0  0  0  0  0  0  0  0  0  0  0  0
   12.3113   -4.6810    5.0874 C   0  0  0  0  0  0  0  0  0  0  0  0
   11.8500   -2.6176    3.2755 C   0  0  0  0  0  0  0  0  0  0  0  0
   12.6795   -4.8287    3.7493 C   0  0  0  0  0  0  0  0  0  0  0  0
   12.4646   -3.7931    2.8402 C   0  0  0  0  0  0  0  0  0  0  0  0
   12.8944   -4.0447    1.5655 O   0  0  0  0  0  0  0  0  0  0  0  0
   14.3000   -4.1911    1.3843 C   0  0  0  0  0  0  0  0  0  0  0  0
  1  2  1  0
  2  3  4  0
  2  4  4  0
  3  5  4  0
  4  6  4  0
  5  7  4  0
  7  8  1  0
  8  9  2  0
  8 10  1  0
 10 11  1  0
 11 12  1  0
 12 13  1  0
 12 14  1  0
 13 15  1  0
 13 16  1  0
 14 17  4  0
 14 18  4  0
 15 19  1  0
 16 20  1  0
 17 21  4  0
 18 22  4  0
 19 23  1  0
 21 24  4  0
 23 25  1  0
 25 26  1  0
 26 27  1  0
 26 28  1  0
 28 29  1  0
 29 30  1  0
 30 31  4  0
 30 32  4  0
 31 33  4  0
 32 34  4  0
 33 35  4  0
 35 36  1  0
 36 37  1  0
  6  7  4  0
 20 23  1  0
 22 24  4  0
 34 35  4  0
M  END
