
     RDKit          3D

 29 33  0  0  0  0  0  0  0  0999 V2000
    3.6586    6.1819    2.5536 O   0  0  0  0  0  0  0  0  0  0  0  0
    4.3199    5.2733    3.0543 C   0  0  0  0  0  0  0  0  0  0  0  0
    5.8142    5.3771    3.2038 C   0  0  0  0  0  0  0  0  0  0  0  0
    3.6445    4.0513    3.6152 C   0  0  0  0  0  0  0  0  0  0  0  0
    6.4671    6.5615    2.8975 O   0  0  0  0  0  0  0  0  0  0  0  0
    6.5272    4.3126    3.6345 C   0  0  0  0  0  0  0  0  0  0  0  0
    4.4916    2.8224    3.3495 C   0  0  0  0  0  0  0  0  0  0  0  0
    6.9592    6.6544    1.5593 C   0  0  0  0  0  0  0  0  0  0  0  0
    5.9264    2.9276    3.9358 C   0  0  1  0  0  0  0  0  0  0  0  0
    8.0204    4.4393    3.8820 C   0  0  0  0  0  0  0  0  0  0  0  0
    5.9388    7.4191    0.7516 C   0  0  0  0  0  0  0  0  0  0  0  0
    6.8110    1.8064    3.2629 C   0  0  1  0  0  0  0  0  0  0  0  0
    5.8503    2.7573    5.4709 C   0  0  0  0  0  0  0  0  0  0  0  0
    8.8176    3.3507    3.1751 C   0  0  0  0  0  0  0  0  0  0  0  0
    5.6857    7.0772   -0.5840 C   0  0  0  0  0  0  0  0  0  0  0  0
    5.2597    8.5094    1.3146 C   0  0  0  0  0  0  0  0  0  0  0  0
    8.3317    1.9576    3.5847 C   0  0  2  0  0  0  0  0  0  0  0  0
    6.3032    0.3584    3.5207 C   0  0  0  0  0  0  0  0  0  0  0  0
    4.7553    7.7978   -1.3346 C   0  0  0  0  0  0  0  0  0  0  0  0
    4.3297    9.2288    0.5623 C   0  0  0  0  0  0  0  0  0  0  0  0
    9.0933    0.8526    2.8479 C   0  0  2  0  0  0  0  0  0  0  0  0
    7.1936   -0.7353    2.9017 C   0  0  0  0  0  0  0  0  0  0  0  0
    4.0761    8.8712   -0.7607 C   0  0  0  0  0  0  0  0  0  0  0  0
    8.6508   -0.5500    3.3107 C   0  0  1  0  0  0  0  0  0  0  0  0
   10.6160    0.8033    2.9116 C   0  0  0  0  0  0  0  0  0  0  0  0
    9.6795   -1.3672    2.5502 C   0  0  0  0  0  0  0  0  0  0  0  0
    8.8578   -0.8633    4.8040 C   0  0  0  0  0  0  0  0  0  0  0  0
   10.9378   -0.5596    2.2802 C   0  0  0  0  0  0  0  0  0  0  0  0
    9.5330   -2.5359    2.2185 O   0  0  0  0  0  0  0  0  0  0  0  0
  1  2  2  0
  2  3  1  0
  2  4  1  0
  3  5  1  0
  3  6  2  0
  4  7  1  0
  5  8  1  0
  6  9  1  0
  6 10  1  0
  8 11  1  0
  9 12  1  0
  9 13  1  1
 10 14  1  0
 11 15  4  0
 11 16  4  0
 12 17  1  0
 12 18  1  1
 15 19  4  0
 16 20  4  0
 17 21  1  0
 18 22  1  0
 19 23  4  0
 21 24  1  0
 21 25  1  1
 24 26  1  0
 24 27  1  1
 25 28  1  0
 26 29  2  0
  7  9  1  0
 17 14  1  6
 20 23  4  0
 22 24  1  0
 26 28  1  0
M  END
