
     RDKit          3D

 32 36  0  0  0  0  0  0  0  0999 V2000
   10.6802   -3.5769   -0.9955 S   0  0  0  0  0  0  0  0  0  0  0  0
    9.7198   -4.6313   -0.7637 O   0  0  0  0  0  0  0  0  0  0  0  0
   11.8341   -3.3833   -0.1451 O   0  0  0  0  0  0  0  0  0  0  0  0
    9.9100   -2.1565   -1.2088 O   0  0  0  0  0  0  0  0  0  0  0  0
   11.3357   -3.8870   -2.5129 N   0  0  0  0  0  0  0  0  0  0  0  0
    9.3401   -1.5777   -0.1079 C   0  0  0  0  0  0  0  0  0  0  0  0
    7.9520   -1.5627    0.0177 C   0  0  0  0  0  0  0  0  0  0  0  0
   10.1510   -0.9629    0.8429 C   0  0  0  0  0  0  0  0  0  0  0  0
    7.3675   -0.9473    1.1266 C   0  0  0  0  0  0  0  0  0  0  0  0
    9.5657   -0.3457    1.9488 C   0  0  0  0  0  0  0  0  0  0  0  0
    8.1712   -0.3346    2.0974 C   0  0  0  0  0  0  0  0  0  0  0  0
    7.5584    0.3149    3.2737 C   0  0  0  0  0  0  0  0  0  0  0  0
    7.4517    1.8162    3.2612 C   0  0  0  0  0  0  0  0  0  0  0  0
    7.0060   -0.3899    4.2925 C   0  0  0  0  0  0  0  0  0  0  0  0
    8.0725    2.4963    2.4438 O   0  0  0  0  0  0  0  0  0  0  0  0
    6.4920    2.4551    4.2286 C   0  0  0  0  0  0  0  0  0  0  0  0
    6.3370    0.2586    5.5267 C   0  0  1  0  0  0  0  0  0  0  0  0
    6.8572   -1.9023    4.2577 C   0  0  0  0  0  0  0  0  0  0  0  0
    6.6396    1.7800    5.5731 C   0  0  0  0  0  0  0  0  0  0  0  0
    4.8035   -0.0659    5.3854 C   0  0  1  0  0  0  0  0  0  0  0  0
    6.9275   -0.3054    6.8474 C   0  0  0  0  0  0  0  0  0  0  0  0
    5.3738   -2.2707    4.1900 C   0  0  0  0  0  0  0  0  0  0  0  0
    4.5431   -1.6148    5.3049 C   0  0  2  0  0  0  0  0  0  0  0  0
    3.8914    0.6149    6.4397 C   0  0  0  0  0  0  0  0  0  0  0  0
    3.0395   -1.8350    5.1016 C   0  0  2  0  0  0  0  0  0  0  0  0
    2.4019    0.2416    6.3020 C   0  0  0  0  0  0  0  0  0  0  0  0
    2.2132   -1.2725    6.2764 C   0  0  1  0  0  0  0  0  0  0  0  0
    2.4916   -3.2435    4.8999 C   0  0  0  0  0  0  0  0  0  0  0  0
    0.8492   -1.7834    5.8427 C   0  0  0  0  0  0  0  0  0  0  0  0
    2.4928   -1.8901    7.6589 C   0  0  0  0  0  0  0  0  0  0  0  0
    0.9728   -3.0300    4.9817 C   0  0  0  0  0  0  0  0  0  0  0  0
   -0.2179   -1.2784    6.1644 O   0  0  0  0  0  0  0  0  0  0  0  0
  1  2  2  0
  1  3  2  0
  1  4  1  0
  1  5  1  0
  4  6  1  0
  6  7  4  0
  6  8  4  0
  7  9  4  0
  8 10  4  0
  9 11  4  0
 11 12  1  0
 12 13  1  0
 12 14  2  0
 13 15  2  0
 13 16  1  0
 14 17  1  0
 14 18  1  0
 16 19  1  0
 17 20  1  0
 17 21  1  1
 18 22  1  0
 20 23  1  0
 20 24  1  1
 23 25  1  0
 24 26  1  0
 25 27  1  0
 25 28  1  1
 27 29  1  0
 27 30  1  1
 28 31  1  0
 29 32  2  0
 10 11  4  0
 17 19  1  0
 23 22  1  6
 26 27  1  0
 29 31  1  0
M  END
