
     RDKit          3D

 24 27  0  0  0  0  0  0  0  0999 V2000
    4.3923    1.9431    3.8765 O   0  0  0  0  0  0  0  0  0  0  0  0
    5.2545    2.7543    3.5433 C   0  0  0  0  0  0  0  0  0  0  0  0
    4.8449    3.9353    2.7548 C   0  0  0  0  0  0  0  0  0  0  0  0
    6.7343    2.5409    3.8616 C   0  0  2  0  0  0  0  0  0  0  0  0
    5.6083    5.0411    2.7283 C   0  0  0  0  0  0  0  0  0  0  0  0
    7.6356    3.7491    3.4215 C   0  0  0  0  0  0  0  0  0  0  0  0
    7.1828    1.2458    3.1658 C   0  0  1  0  0  0  0  0  0  0  0  0
    6.8814    5.1196    3.5501 C   0  0  2  0  0  0  0  0  0  0  0  0
    5.1712    6.2043    1.8690 C   0  0  0  0  0  0  0  0  0  0  0  0
    8.3030    3.4794    2.0494 C   0  0  0  0  0  0  0  0  0  0  0  0
    8.7104    1.1360    3.0204 C   0  0  2  0  0  0  0  0  0  0  0  0
    6.7638   -0.0944    3.7686 C   0  0  0  0  0  0  0  0  0  0  0  0
    6.5340    5.1632    4.9745 O   0  0  0  0  0  0  0  0  0  0  0  0
    7.8338    6.2997    3.2294 C   0  0  0  0  0  0  0  0  0  0  0  0
    6.1540    7.3660    1.7392 C   0  0  0  0  0  0  0  0  0  0  0  0
    9.1866    2.2107    2.0383 C   0  0  0  0  0  0  0  0  0  0  0  0
    8.7860   -0.2974    2.5162 C   0  0  0  0  0  0  0  0  0  0  0  0
    9.5115    1.1629    4.3353 C   0  0  0  0  0  0  0  0  0  0  0  0
    7.5804   -1.1075    2.9554 C   0  0  0  0  0  0  0  0  0  0  0  0
    5.2748    5.4682    5.3859 C   0  0  0  0  0  0  0  0  0  0  0  0
    7.5999    6.9171    1.8557 C   0  0  0  0  0  0  0  0  0  0  0  0
    9.7139   -0.7543    1.8616 O   0  0  0  0  0  0  0  0  0  0  0  0
    4.6096    6.4285    5.0302 O   0  0  0  0  0  0  0  0  0  0  0  0
    4.8052    4.4386    6.3680 C   0  0  0  0  0  0  0  0  0  0  0  0
  1  2  2  0
  2  3  1  0
  4  2  1  6
  3  5  2  0
  4  6  1  0
  4  7  1  0
  5  8  1  0
  5  9  1  0
  6 10  1  0
  7 11  1  0
  7 12  1  1
  8 13  1  1
  8 14  1  0
  9 15  1  0
 10 16  1  0
 11 17  1  0
 11 18  1  1
 12 19  1  0
 13 20  1  0
 14 21  1  0
 17 22  2  0
 20 23  2  0
 20 24  1  0
  6  8  1  0
 11 16  1  0
 15 21  1  0
 17 19  1  0
M  END
