
     RDKit          3D

 21 24  0  0  0  0  0  0  0  0999 V2000
    4.3896    3.7985    3.9909 O   0  0  0  0  0  0  0  0  0  0  0  0
    4.8605    4.6893    3.2831 C   0  0  0  0  0  0  0  0  0  0  0  0
    3.9463    5.3917    2.3573 C   0  0  0  0  0  0  0  0  0  0  0  0
    6.3526    5.0417    3.3134 C   0  0  2  0  0  0  0  0  0  0  0  0
    4.3080    6.5410    1.7700 C   0  0  0  0  0  0  0  0  0  0  0  0
    6.7577    6.1166    2.2464 C   0  0  2  0  0  0  0  0  0  0  0  0
    7.1414    3.7373    3.0923 C   0  0  1  0  0  0  0  0  0  0  0  0
    5.6449    7.1758    2.0452 C   0  0  2  0  0  0  0  0  0  0  0  0
    3.3602    7.2940    0.8682 C   0  0  0  0  0  0  0  0  0  0  0  0
    7.2825    5.4477    0.9539 C   0  0  0  0  0  0  0  0  0  0  0  0
    8.5819    3.9655    2.6024 C   0  0  2  0  0  0  0  0  0  0  0  0
    7.2929    2.7606    4.2585 C   0  0  0  0  0  0  0  0  0  0  0  0
    5.4885    7.8565    3.2988 O   0  0  0  0  0  0  0  0  0  0  0  0
    5.9760    8.2294    0.9712 C   0  0  0  0  0  0  0  0  0  0  0  0
    3.4765    8.8013    1.0802 C   0  0  0  0  0  0  0  0  0  0  0  0
    8.5279    4.5624    1.1925 C   0  0  0  0  0  0  0  0  0  0  0  0
    9.0778    2.5298    2.6903 C   0  0  0  0  0  0  0  0  0  0  0  0
    9.4909    4.7782    3.5435 C   0  0  0  0  0  0  0  0  0  0  0  0
    8.2943    1.7317    3.7162 C   0  0  0  0  0  0  0  0  0  0  0  0
    4.9010    9.3201    0.8612 C   0  0  0  0  0  0  0  0  0  0  0  0
   10.0111    2.0777    2.0400 O   0  0  0  0  0  0  0  0  0  0  0  0
  1  2  2  0
  2  3  1  0
  4  2  1  6
  3  5  2  0
  4  6  1  0
  4  7  1  0
  5  8  1  0
  5  9  1  0
  6 10  1  6
  7 11  1  0
  7 12  1  1
  8 13  1  1
  8 14  1  0
  9 15  1  0
 10 16  1  0
 11 17  1  0
 11 18  1  1
 12 19  1  0
 14 20  1  0
 17 21  2  0
  6  8  1  0
 11 16  1  0
 15 20  1  0
 17 19  1  0
M  END
