
     RDKit          3D

 25 28  0  0  0  0  0  0  0  0999 V2000
    3.3604    7.0650    2.1470 O   0  0  0  0  0  0  0  0  0  0  0  0
    4.4383    6.5404    2.4295 C   0  0  0  0  0  0  0  0  0  0  0  0
    4.4977    5.4684    3.4832 C   0  0  0  0  0  0  0  0  0  0  0  0
    5.7407    7.0034    1.7804 C   0  0  2  0  0  0  0  0  0  0  0  0
    3.3274    5.2421    4.1936 O   0  0  0  0  0  0  0  0  0  0  0  0
    5.6402    4.7852    3.6968 C   0  0  0  0  0  0  0  0  0  0  0  0
    6.7299    5.8238    1.6853 C   0  0  0  0  0  0  0  0  0  0  0  0
    6.2782    8.1968    2.5815 C   0  0  0  0  0  0  0  0  0  0  0  0
    5.4493    7.4853    0.3429 C   0  0  0  0  0  0  0  0  0  0  0  0
    5.5867    3.6981    4.7182 C   0  0  0  0  0  0  0  0  0  0  0  0
    6.9593    4.9806    2.9727 C   0  0  2  0  0  0  0  0  0  0  0  0
    4.9110    3.8416    5.7373 O   0  0  0  0  0  0  0  0  0  0  0  0
    6.2513    2.3864    4.3858 C   0  0  0  0  0  0  0  0  0  0  0  0
    7.5427    3.5737    2.5472 C   0  0  2  0  0  0  0  0  0  0  0  0
    7.9371    5.7136    3.9217 C   0  0  0  0  0  0  0  0  0  0  0  0
    7.6248    2.5765    3.7469 C   0  0  2  0  0  0  0  0  0  0  0  0
    8.8868    3.6641    1.7676 C   0  0  0  0  0  0  0  0  0  0  0  0
    8.1900    1.2478    3.2350 C   0  0  1  0  0  0  0  0  0  0  0  0
    9.5024    2.2970    1.4175 C   0  0  0  0  0  0  0  0  0  0  0  0
    9.6089    1.4134    2.6554 C   0  0  2  0  0  0  0  0  0  0  0  0
    8.3105    0.0581    4.1818 C   0  0  0  0  0  0  0  0  0  0  0  0
    9.9221   -0.0531    2.4183 C   0  0  0  0  0  0  0  0  0  0  0  0
   10.6779    1.9397    3.6305 C   0  0  0  0  0  0  0  0  0  0  0  0
    9.1344   -0.9465    3.3618 C   0  0  0  0  0  0  0  0  0  0  0  0
   10.7232   -0.4677    1.5918 O   0  0  0  0  0  0  0  0  0  0  0  0
  1  2  2  0
  2  3  1  0
  2  4  1  0
  3  5  1  0
  3  6  2  0
  4  7  1  0
  4  8  1  1
  4  9  1  0
  6 10  1  0
  6 11  1  0
 10 12  2  0
 10 13  1  0
 11 14  1  0
 11 15  1  1
 16 13  1  6
 14 17  1  1
 16 18  1  0
 17 19  1  0
 18 20  1  0
 18 21  1  1
 20 22  1  0
 20 23  1  1
 21 24  1  0
 22 25  2  0
  7 11  1  0
 14 16  1  0
 19 20  1  0
 22 24  1  0
M  END
