
     RDKit          3D

 27 30  0  0  0  0  0  0  0  0999 V2000
    4.2896    4.5627    7.3080 O   0  0  0  0  0  0  0  0  0  0  0  0
    4.1377    4.0766    6.1948 C   0  0  0  0  0  0  0  0  0  0  0  0
    3.8137    2.7834    5.9556 O   0  0  0  0  0  0  0  0  0  0  0  0
    4.2846    4.8392    4.9207 C   0  0  0  0  0  0  0  0  0  0  0  0
    3.0654    2.1599    6.9996 C   0  0  0  0  0  0  0  0  0  0  0  0
    3.3371    5.7737    4.7178 C   0  0  0  0  0  0  0  0  0  0  0  0
    5.4016    4.5642    3.9242 C   0  0  1  0  0  0  0  0  0  0  0  0
    3.3013    6.5736    3.6045 O   0  0  0  0  0  0  0  0  0  0  0  0
    6.5202    5.6535    3.9170 C   0  0  1  0  0  0  0  0  0  0  0  0
    5.9883    3.1500    4.0603 C   0  0  0  0  0  0  0  0  0  0  0  0
    2.9419    5.8587    2.4250 C   0  0  0  0  0  0  0  0  0  0  0  0
    7.8882    5.0264    3.5621 C   0  0  0  0  0  0  0  0  0  0  0  0
    6.1143    6.8015    2.9605 C   0  0  0  0  0  0  0  0  0  0  0  0
    6.9786    2.8494    2.9109 C   0  0  1  0  0  0  0  0  0  0  0  0
    7.7274    4.0626    2.4744 N   0  0  0  0  0  0  0  0  0  0  0  0
    6.0442    6.3837    1.4974 C   0  0  0  0  0  0  0  0  0  0  0  0
    7.9105    1.7352    3.3031 C   0  0  0  0  0  0  0  0  0  0  0  0
    9.0011    3.7503    1.7878 C   0  0  0  0  0  0  0  0  0  0  0  0
    7.5314    0.5253    3.8201 N   0  0  0  0  0  0  0  0  0  0  0  0
    9.2842    1.7245    3.1722 C   0  0  0  0  0  0  0  0  0  0  0  0
   10.0002    2.8927    2.5982 C   0  0  0  0  0  0  0  0  0  0  0  0
    8.6439   -0.2546    4.0574 C   0  0  0  0  0  0  0  0  0  0  0  0
    9.7629    0.4787    3.6545 C   0  0  0  0  0  0  0  0  0  0  0  0
    8.7408   -1.5467    4.5878 C   0  0  0  0  0  0  0  0  0  0  0  0
   11.0379   -0.1056    3.7843 C   0  0  0  0  0  0  0  0  0  0  0  0
   10.0175   -2.1045    4.7076 C   0  0  0  0  0  0  0  0  0  0  0  0
   11.1507   -1.3971    4.3121 C   0  0  0  0  0  0  0  0  0  0  0  0
  1  2  2  0
  2  3  1  0
  2  4  1  0
  3  5  1  0
  4  6  2  0
  7  4  1  1
  6  8  1  0
  7  9  1  0
  7 10  1  0
  8 11  1  0
  9 12  1  0
  9 13  1  6
 14 10  1  1
 12 15  1  0
 13 16  1  0
 14 17  1  0
 15 18  1  0
 17 19  4  0
 17 20  4  0
 18 21  1  0
 19 22  4  0
 20 23  4  0
 22 24  4  0
 23 25  4  0
 24 26  4  0
 25 27  4  0
 14 15  1  0
 20 21  1  0
 22 23  4  0
 26 27  4  0
M  END
