
     RDKit          3D

 21 23  0  0  0  0  0  0  0  0999 V2000
    9.2490   -0.4890    0.1800 O   0  0  0  0  0  0  0  0  0  0  0  0
    8.7542    0.1750    1.0818 C   0  0  0  0  0  0  0  0  0  0  0  0
    9.3732    1.4352    1.5384 C   0  0  0  0  0  0  0  0  0  0  0  0
    7.5083   -0.2445    1.7490 C   0  0  0  0  0  0  0  0  0  0  0  0
    8.8499    2.1616    2.5423 C   0  0  0  0  0  0  0  0  0  0  0  0
    6.9863    0.4757    2.7508 C   0  0  0  0  0  0  0  0  0  0  0  0
    7.5868    1.7596    3.3152 C   0  0  2  0  0  0  0  0  0  0  0  0
    9.4712    3.4808    2.9248 C   0  0  0  0  0  0  0  0  0  0  0  0
    6.5505    2.9404    3.2017 C   0  0  2  0  0  0  0  0  0  0  0  0
    7.9694    1.4467    4.7792 C   0  0  0  0  0  0  0  0  0  0  0  0
    8.4479    4.6011    2.7840 C   0  0  0  0  0  0  0  0  0  0  0  0
    7.1690    4.3144    3.5872 C   0  0  1  0  0  0  0  0  0  0  0  0
    5.2492    2.7200    4.0050 C   0  0  0  0  0  0  0  0  0  0  0  0
    6.1613    5.4603    3.3782 C   0  0  0  0  0  0  0  0  0  0  0  0
    4.2470    3.8589    3.8014 C   0  0  0  0  0  0  0  0  0  0  0  0
    4.8244    5.2521    4.1213 C   0  0  2  0  0  0  0  0  0  0  0  0
    3.8257    6.3312    3.6703 C   0  0  0  0  0  0  0  0  0  0  0  0
    5.0316    5.4025    5.6433 C   0  0  0  0  0  0  0  0  0  0  0  0
    3.6727    7.4144    4.2208 O   0  0  0  0  0  0  0  0  0  0  0  0
    3.1283    5.9295    2.5690 O   0  0  0  0  0  0  0  0  0  0  0  0
    3.4814    6.6180    1.3684 C   0  0  0  0  0  0  0  0  0  0  0  0
  1  2  2  0
  2  3  1  0
  2  4  1  0
  3  5  2  0
  4  6  2  0
  5  7  1  0
  5  8  1  0
  7  9  1  0
  7 10  1  1
  8 11  1  0
  9 12  1  0
  9 13  1  1
 12 14  1  6
 13 15  1  0
 14 16  1  0
 16 17  1  0
 16 18  1  1
 17 19  2  0
 17 20  1  0
 20 21  1  0
  6  7  1  0
 11 12  1  0
 15 16  1  0
M  END
