
     RDKit          3D

 26 30  0  0  0  0  0  0  0  0999 V2000
    6.8136   -0.7687    5.7862 O   0  0  0  0  0  0  0  0  0  0  0  0
    7.0006   -0.3772    4.6432 C   0  0  0  0  0  0  0  0  0  0  0  0
    6.2338   -0.6578    3.5656 O   0  0  0  0  0  0  0  0  0  0  0  0
    8.1682    0.4681    4.2841 C   0  0  0  0  0  0  0  0  0  0  0  0
    6.0627   -2.0542    3.3115 C   0  0  0  0  0  0  0  0  0  0  0  0
    9.4092    0.0994    4.6365 C   0  0  0  0  0  0  0  0  0  0  0  0
    7.9485    1.6798    3.4194 C   0  0  2  0  0  0  0  0  0  0  0  0
   10.5669    0.7221    4.2499 O   0  0  0  0  0  0  0  0  0  0  0  0
    9.2050    2.5738    3.4319 C   0  0  1  0  0  0  0  0  0  0  0  0
    6.7878    2.6047    3.8078 C   0  0  0  0  0  0  0  0  0  0  0  0
   10.4450    1.6963    3.1962 C   0  0  0  0  0  0  0  0  0  0  0  0
    9.0605    3.7310    2.4774 C   0  0  0  0  0  0  0  0  0  0  0  0
    6.5658    3.6215    2.6881 C   0  0  2  0  0  0  0  0  0  0  0  0
   11.7576    2.4763    3.2034 C   0  0  0  0  0  0  0  0  0  0  0  0
    7.8929    4.2158    2.2110 N   0  0  0  0  0  0  0  0  0  0  0  0
    5.6700    4.7455    3.0965 C   0  0  0  0  0  0  0  0  0  0  0  0
    7.7662    5.4764    1.3711 C   0  0  0  0  0  0  0  0  0  0  0  0
    4.4472    4.6147    3.7044 N   0  0  0  0  0  0  0  0  0  0  0  0
    5.8978    6.0934    2.8870 C   0  0  0  0  0  0  0  0  0  0  0  0
    7.1313    6.5928    2.2142 C   0  0  0  0  0  0  0  0  0  0  0  0
    3.9013    5.8616    3.9222 C   0  0  0  0  0  0  0  0  0  0  0  0
    4.7931    6.8102    3.4170 C   0  0  0  0  0  0  0  0  0  0  0  0
    2.6870    6.2144    4.5224 C   0  0  0  0  0  0  0  0  0  0  0  0
    4.4586    8.1746    3.5146 C   0  0  0  0  0  0  0  0  0  0  0  0
    2.3777    7.5746    4.6091 C   0  0  0  0  0  0  0  0  0  0  0  0
    3.2483    8.5420    4.1137 C   0  0  0  0  0  0  0  0  0  0  0  0
  1  2  2  0
  2  3  1  0
  2  4  1  0
  3  5  1  0
  4  6  2  0
  4  7  1  0
  6  8  1  0
  7  9  1  0
  7 10  1  1
  8 11  1  0
  9 12  1  0
 13 10  1  1
 11 14  1  0
 12 15  2  0
 13 16  1  0
 15 17  1  0
 16 18  4  0
 16 19  4  0
 17 20  1  0
 18 21  4  0
 19 22  4  0
 21 23  4  0
 22 24  4  0
 23 25  4  0
 24 26  4  0
  9 11  1  6
 13 15  1  0
 19 20  1  0
 21 22  4  0
 25 26  4  0
M  CHG  1  15   1
M  END
