
     RDKit          3D

 25 27  0  0  0  0  0  0  0  0999 V2000
    5.9204    8.6142    0.7358 Br  0  0  0  0  0  0  0  0  0  0  0  0
    6.4871    7.0156    1.5700 C   0  0  0  0  0  0  0  0  0  0  0  0
    7.3006    6.1239    0.8765 C   0  0  0  0  0  0  0  0  0  0  0  0
    6.0848    6.7354    2.8726 C   0  0  0  0  0  0  0  0  0  0  0  0
    7.7157    4.9397    1.4906 C   0  0  0  0  0  0  0  0  0  0  0  0
    6.5023    5.5533    3.4879 C   0  0  0  0  0  0  0  0  0  0  0  0
    7.3251    4.6418    2.8061 C   0  0  0  0  0  0  0  0  0  0  0  0
    7.7501    3.3469    3.4969 C   0  0  0  0  0  0  0  0  0  0  0  0
    6.8285    3.0351    4.7135 C   0  0  0  0  0  0  0  0  0  0  0  0
    7.8177    2.1546    2.5191 C   0  0  0  0  0  0  0  0  0  0  0  0
    5.8189    4.0596    4.8690 O   0  0  0  0  0  0  0  0  0  0  0  0
    6.0707    1.7241    4.5352 C   0  0  0  0  0  0  0  0  0  0  0  0
    9.0588    1.4096    2.5913 N   0  0  0  0  0  0  0  0  0  0  0  0
    4.5290    3.6738    4.6814 C   0  0  0  0  0  0  0  0  0  0  0  0
    5.9002    0.8261    5.6021 C   0  0  0  0  0  0  0  0  0  0  0  0
    5.5038    1.4046    3.2913 C   0  0  0  0  0  0  0  0  0  0  0  0
    9.4134    0.5784    1.5973 N   0  0  0  0  0  0  0  0  0  0  0  0
    9.9513    1.3604    3.6207 C   0  0  0  0  0  0  0  0  0  0  0  0
    3.9611    3.6129    3.6015 O   0  0  0  0  0  0  0  0  0  0  0  0
    3.9125    3.2846    5.9894 C   0  0  0  0  0  0  0  0  0  0  0  0
    5.1845   -0.3595    5.4273 C   0  0  0  0  0  0  0  0  0  0  0  0
    4.7866    0.2194    3.1198 C   0  0  0  0  0  0  0  0  0  0  0  0
   10.5579    0.0059    1.9464 N   0  0  0  0  0  0  0  0  0  0  0  0
   10.9039    0.4731    3.1818 C   0  0  0  0  0  0  0  0  0  0  0  0
    4.6277   -0.6619    4.1868 C   0  0  0  0  0  0  0  0  0  0  0  0
  1  2  1  0
  2  3  4  0
  2  4  4  0
  3  5  4  0
  4  6  4  0
  5  7  4  0
  7  8  1  0
  8  9  1  0
  8 10  1  0
  9 11  1  0
  9 12  1  0
 10 13  1  0
 11 14  1  0
 12 15  4  0
 12 16  4  0
 13 17  4  0
 13 18  4  0
 14 19  2  0
 14 20  1  0
 15 21  4  0
 16 22  4  0
 17 23  4  0
 18 24  4  0
 21 25  4  0
  6  7  4  0
 22 25  4  0
 23 24  4  0
M  END
