
     RDKit          3D

 21 24  0  0  0  0  0  0  0  0999 V2000
    5.5791    5.4476    5.5686 S   0  0  0  0  0  0  0  0  0  0  0  0
    5.4534    4.7885    3.8204 C   0  0  1  0  0  0  0  0  0  0  0  0
    6.0519    5.8760    2.9361 C   0  0  0  0  0  0  0  0  0  0  0  0
    6.2188    3.4039    3.7819 C   0  0  2  0  0  0  0  0  0  0  0  0
    3.9397    4.6254    3.5162 C   0  0  0  0  0  0  0  0  0  0  0  0
    5.3135    6.7686    2.2495 C   0  0  0  0  0  0  0  0  0  0  0  0
    7.5530    5.9581    2.8760 C   0  0  0  0  0  0  0  0  0  0  0  0
    7.7699    3.5172    3.5555 C   0  0  2  0  0  0  0  0  0  0  0  0
    5.6352    2.3056    2.8553 C   0  0  0  0  0  0  0  0  0  0  0  0
    3.1748    5.9399    3.3955 C   0  0  0  0  0  0  0  0  0  0  0  0
    3.8375    6.8291    2.3756 C   0  0  0  0  0  0  0  0  0  0  0  0
    8.1483    4.6087    2.5381 C   0  0  0  0  0  0  0  0  0  0  0  0
    8.3679    2.1898    3.0469 C   0  0  2  0  0  0  0  0  0  0  0  0
    6.2383    0.9001    3.1133 C   0  0  0  0  0  0  0  0  0  0  0  0
    3.2077    7.6343    1.6947 O   0  0  0  0  0  0  0  0  0  0  0  0
    7.6990    0.9286    3.6038 C   0  0  1  0  0  0  0  0  0  0  0  0
    9.8614    1.9508    3.2654 C   0  0  0  0  0  0  0  0  0  0  0  0
    8.6043   -0.1418    2.9524 C   0  0  1  0  0  0  0  0  0  0  0  0
    7.7587    0.7944    5.1459 C   0  0  0  0  0  0  0  0  0  0  0  0
   10.0275    0.4311    3.0909 C   0  0  0  0  0  0  0  0  0  0  0  0
    8.4854   -1.4108    3.5649 O   0  0  0  0  0  0  0  0  0  0  0  0
  2  1  1  1
  2  3  1  0
  2  4  1  0
  2  5  1  0
  3  6  2  0
  3  7  1  0
  4  8  1  0
  4  9  1  6
  5 10  1  0
  6 11  1  0
  7 12  1  0
  8 13  1  0
  9 14  1  0
 11 15  2  0
 13 16  1  0
 13 17  1  1
 16 18  1  0
 16 19  1  1
 17 20  1  0
 18 21  1  1
  8 12  1  6
 10 11  1  0
 14 16  1  0
 18 20  1  0
M  END
