
     RDKit          3D

 25 28  0  0  0  0  0  0  0  0999 V2000
   11.1438   -1.0392    2.2235 O   0  0  0  0  0  0  0  0  0  0  0  0
    9.8151   -0.5585    2.1556 C   0  0  2  0  0  0  0  0  0  0  0  0
    9.6850    0.9178    2.5778 C   0  0  2  0  0  0  0  0  0  0  0  0
    8.8882   -1.3100    3.1301 C   0  0  0  0  0  0  0  0  0  0  0  0
    8.1662    0.9749    2.8280 C   0  0  1  0  0  0  0  0  0  0  0  0
   10.0199    1.9318    1.4767 C   0  0  0  0  0  0  0  0  0  0  0  0
   10.5582    1.2010    3.8258 C   0  0  0  0  0  0  0  0  0  0  0  0
    7.8987   -0.2653    3.6767 C   0  0  0  0  0  0  0  0  0  0  0  0
    7.7025    2.3434    3.3377 C   0  0  1  0  0  0  0  0  0  0  0  0
    9.5505    3.3497    1.8511 C   0  0  0  0  0  0  0  0  0  0  0  0
    8.0547    3.4212    2.2691 C   0  0  2  0  0  0  0  0  0  0  0  0
    6.1950    2.3535    3.6172 C   0  0  0  0  0  0  0  0  0  0  0  0
    7.5733    4.8632    2.6804 C   0  0  2  0  0  0  0  0  0  0  0  0
    5.7151    3.7265    4.1152 C   0  0  1  0  0  0  0  0  0  0  0  0
    6.0848    4.8225    3.1078 C   0  0  0  0  0  0  0  0  0  0  0  0
    7.7742    5.8111    1.4551 C   0  0  0  0  0  0  0  0  0  0  0  0
    8.3970    5.4259    3.8652 C   0  0  0  0  0  0  0  0  0  0  0  0
    4.2413    3.6455    4.5940 C   0  0  0  0  0  0  0  0  0  0  0  0
    5.2007    5.7306    2.6460 C   0  0  0  0  0  0  0  0  0  0  0  0
    7.0104    7.1223    1.5796 C   0  0  0  0  0  0  0  0  0  0  0  0
    3.8989    4.4640    5.8457 C   0  0  0  0  0  0  0  0  0  0  0  0
    5.5190    6.8613    1.7161 C   0  0  0  0  0  0  0  0  0  0  0  0
    2.5643    5.1956    5.6784 C   0  0  0  0  0  0  0  0  0  0  0  0
    2.7744    6.7035    5.5353 C   0  0  0  0  0  0  0  0  0  0  0  0
    2.7931    7.1279    4.0755 C   0  0  0  0  0  0  0  0  0  0  0  0
  2  1  1  1
  2  3  1  0
  2  4  1  0
  3  5  1  0
  3  6  1  0
  3  7  1  1
  4  8  1  0
  5  9  1  0
  6 10  1  0
  9 11  1  0
  9 12  1  6
 11 13  1  0
 12 14  1  0
 13 15  1  0
 13 16  1  0
 13 17  1  1
 14 18  1  6
 15 19  2  0
 16 20  1  0
 18 21  1  0
 19 22  1  0
 21 23  1  0
 23 24  1  0
 24 25  1  0
  5  8  1  1
 11 10  1  1
 14 15  1  0
 20 22  1  0
M  END
