
     RDKit          3D

 28 32  0  0  0  0  0  0  0  0999 V2000
   10.6278    1.8214   -0.1439 O   0  0  0  0  0  0  0  0  0  0  0  0
   10.0446    1.2839    0.7926 C   0  0  0  0  0  0  0  0  0  0  0  0
    9.2677    2.1064    1.7479 C   0  0  0  0  0  0  0  0  0  0  0  0
    9.9695   -0.2092    0.9613 C   0  0  0  0  0  0  0  0  0  0  0  0
    8.7268    1.5718    2.8609 C   0  0  0  0  0  0  0  0  0  0  0  0
   10.0841   -0.5300    2.4385 C   0  0  0  0  0  0  0  0  0  0  0  0
    8.9871    0.1332    3.3331 C   0  0  2  0  0  0  0  0  0  0  0  0
    7.5982    2.3497    3.4995 C   0  0  0  0  0  0  0  0  0  0  0  0
    7.5769   -0.5214    3.2254 C   0  0  2  0  0  0  0  0  0  0  0  0
    9.5782    0.0396    4.7608 C   0  0  0  0  0  0  0  0  0  0  0  0
    6.7787    1.6036    4.5694 C   0  0  2  0  0  0  0  0  0  0  0  0
    6.5120    0.0886    4.2479 C   0  0  1  0  0  0  0  0  0  0  0  0
    7.5442   -2.0647    3.2564 C   0  0  0  0  0  0  0  0  0  0  0  0
    5.6075    2.5040    5.0191 C   0  0  0  0  0  0  0  0  0  0  0  0
    5.1401   -0.4221    3.7343 C   0  0  1  0  0  0  0  0  0  0  0  0
    6.1418   -2.6069    2.9382 C   0  0  0  0  0  0  0  0  0  0  0  0
    5.4358    3.8617    4.3705 C   0  0  0  0  0  0  0  0  0  0  0  0
    5.0799   -1.9823    3.8377 C   0  0  2  0  0  0  0  0  0  0  0  0
    3.7845   -0.0113    4.3039 C   0  0  0  0  0  0  0  0  0  0  0  0
    5.9394    4.0425    3.0702 C   0  0  0  0  0  0  0  0  0  0  0  0
    4.8553    4.9631    5.0131 C   0  0  0  0  0  0  0  0  0  0  0  0
    3.6502   -2.2024    3.3805 C   0  0  0  0  0  0  0  0  0  0  0  0
    5.1695   -2.5671    5.2629 C   0  0  0  0  0  0  0  0  0  0  0  0
    2.7959   -0.9841    3.6422 C   0  0  0  0  0  0  0  0  0  0  0  0
    5.8303    5.2728    2.4196 C   0  0  0  0  0  0  0  0  0  0  0  0
    4.7456    6.1949    4.3611 C   0  0  0  0  0  0  0  0  0  0  0  0
    3.2282   -3.2377    2.8824 O   0  0  0  0  0  0  0  0  0  0  0  0
    5.2286    6.3487    3.0645 C   0  0  0  0  0  0  0  0  0  0  0  0
  1  2  2  0
  2  3  1  0
  2  4  1  0
  3  5  2  0
  4  6  1  0
  5  7  1  0
  5  8  1  0
  7  9  1  0
  7 10  1  1
  8 11  1  0
 12  9  1  0
  9 13  1  1
 11 14  1  6
 12 15  1  0
 13 16  1  0
 14 17  1  0
 15 18  1  0
 15 19  1  1
 17 20  4  0
 17 21  4  0
 18 22  1  0
 18 23  1  1
 19 24  1  0
 20 25  4  0
 21 26  4  0
 22 27  2  0
 25 28  4  0
  6  7  1  0
 12 11  1  6
 16 18  1  0
 22 24  1  0
 26 28  4  0
M  END
