
     RDKit          3D

 24 26  0  0  0  0  0  0  0  0999 V2000
    3.9589    3.0830    5.8920 O   0  0  0  0  0  0  0  0  0  0  0  0
    4.1676    3.8232    4.9417 C   0  0  0  0  0  0  0  0  0  0  0  0
    4.3252    3.4375    3.6480 O   0  0  0  0  0  0  0  0  0  0  0  0
    4.2869    5.3128    5.0438 C   0  0  0  0  0  0  0  0  0  0  0  0
    5.5620    2.7584    3.3290 C   0  0  2  0  0  0  0  0  0  0  0  0
    5.5535    1.4688    4.1365 C   0  0  0  0  0  0  0  0  0  0  0  0
    6.7358    3.7208    3.6780 C   0  0  2  0  0  0  0  0  0  0  0  0
    6.3832    1.2860    5.2543 C   0  0  0  0  0  0  0  0  0  0  0  0
    4.6631    0.4408    3.7880 C   0  0  0  0  0  0  0  0  0  0  0  0
    6.8503    4.9180    2.7288 C   0  0  0  0  0  0  0  0  0  0  0  0
    8.1009    3.0233    3.8773 C   0  0  0  0  0  0  0  0  0  0  0  0
    6.3518    0.0911    5.9759 C   0  0  0  0  0  0  0  0  0  0  0  0
    4.6329   -0.7527    4.5107 C   0  0  0  0  0  0  0  0  0  0  0  0
    8.0842    5.4400    2.3149 C   0  0  0  0  0  0  0  0  0  0  0  0
    5.6765    5.5313    2.2552 C   0  0  0  0  0  0  0  0  0  0  0  0
    8.5880    2.2164    2.7820 N   0  0  0  0  0  0  0  0  0  0  0  0
    5.4815   -0.9296    5.6004 C   0  0  0  0  0  0  0  0  0  0  0  0
    8.1427    6.5337    1.4478 C   0  0  0  0  0  0  0  0  0  0  0  0
    5.7372    6.6233    1.3870 C   0  0  0  0  0  0  0  0  0  0  0  0
    8.0694    1.0054    2.5279 N   0  0  0  0  0  0  0  0  0  0  0  0
    9.5154    2.5587    1.8416 C   0  0  0  0  0  0  0  0  0  0  0  0
    6.9710    7.1237    0.9823 C   0  0  0  0  0  0  0  0  0  0  0  0
    8.6850    0.5203    1.4581 N   0  0  0  0  0  0  0  0  0  0  0  0
    9.5714    1.4603    1.0198 C   0  0  0  0  0  0  0  0  0  0  0  0
  1  2  2  0
  2  3  1  0
  2  4  1  0
  5  3  1  1
  5  6  1  0
  5  7  1  0
  6  8  4  0
  6  9  4  0
  7 10  1  0
  7 11  1  6
  8 12  4  0
  9 13  4  0
 10 14  4  0
 10 15  4  0
 11 16  1  0
 12 17  4  0
 14 18  4  0
 15 19  4  0
 16 20  4  0
 16 21  4  0
 18 22  4  0
 20 23  4  0
 21 24  4  0
 13 17  4  0
 19 22  4  0
 23 24  4  0
M  END
