
     RDKit          3D

 24 26  0  0  0  0  0  0  0  0999 V2000
    7.6399   -1.8541    1.0263 Br  0  0  0  0  0  0  0  0  0  0  0  0
    8.6121   -0.2408    1.1869 C   0  0  0  0  0  0  0  0  0  0  0  0
    8.3715    0.6073    2.2682 C   0  0  0  0  0  0  0  0  0  0  0  0
    9.5621    0.0908    0.2238 C   0  0  0  0  0  0  0  0  0  0  0  0
    9.0843    1.8109    2.3940 C   0  0  0  0  0  0  0  0  0  0  0  0
   10.2791    1.2802    0.3431 C   0  0  0  0  0  0  0  0  0  0  0  0
   10.0445    2.1342    1.4225 C   0  0  0  0  0  0  0  0  0  0  0  0
    8.8338    2.7374    3.5592 C   0  0  0  0  0  0  0  0  0  0  0  0
    7.4147    2.9255    3.8162 N   0  0  0  0  0  0  0  0  0  0  0  0
    6.7243    1.9601    4.4495 N   0  0  0  0  0  0  0  0  0  0  0  0
    6.6233    4.0178    3.5446 C   0  0  0  0  0  0  0  0  0  0  0  0
    5.4765    2.3807    4.5799 N   0  0  0  0  0  0  0  0  0  0  0  0
    7.0937    5.2250    2.8859 C   0  0  0  0  0  0  0  0  0  0  0  0
    5.3761    3.6413    4.0324 C   0  0  0  0  0  0  0  0  0  0  0  0
    6.4239    5.7205    1.7618 C   0  0  0  0  0  0  0  0  0  0  0  0
    8.2206    5.8986    3.3700 C   0  0  0  0  0  0  0  0  0  0  0  0
    4.1141    4.3716    4.0310 C   0  0  0  0  0  0  0  0  0  0  0  0
    6.8836    6.8725    1.1218 C   0  0  0  0  0  0  0  0  0  0  0  0
    8.6777    7.0514    2.7291 C   0  0  0  0  0  0  0  0  0  0  0  0
    3.7131    5.0254    3.0741 O   0  0  0  0  0  0  0  0  0  0  0  0
    3.4219    4.2479    5.2029 O   0  0  0  0  0  0  0  0  0  0  0  0
    8.0104    7.5363    1.6048 C   0  0  0  0  0  0  0  0  0  0  0  0
    2.5397    5.3274    5.5363 C   0  0  0  0  0  0  0  0  0  0  0  0
    3.3390    6.5880    5.8071 C   0  0  0  0  0  0  0  0  0  0  0  0
  1  2  1  0
  2  3  4  0
  2  4  4  0
  3  5  4  0
  4  6  4  0
  5  7  4  0
  5  8  1  0
  8  9  1  0
  9 10  4  0
  9 11  4  0
 10 12  4  0
 11 13  1  0
 11 14  4  0
 13 15  4  0
 13 16  4  0
 14 17  1  0
 15 18  4  0
 16 19  4  0
 17 20  2  0
 17 21  1  0
 18 22  4  0
 21 23  1  0
 23 24  1  0
  6  7  4  0
 12 14  4  0
 19 22  4  0
M  END
