
     RDKit          3D

 24 28  0  0  0  0  0  0  0  0999 V2000
    9.7337    0.0965    4.1993 O   0  0  0  0  0  0  0  0  0  0  0  0
    8.4077   -0.2365    4.1317 C   0  0  0  0  0  0  0  0  0  0  0  0
   10.1333    1.2524    3.4369 C   0  0  2  0  0  0  0  0  0  0  0  0
    7.4157    0.5227    3.6364 C   0  0  0  0  0  0  0  0  0  0  0  0
    9.1029    2.3830    3.5712 C   0  0  2  0  0  0  0  0  0  0  0  0
   10.4650    0.8051    2.0120 C   0  0  0  0  0  0  0  0  0  0  0  0
    7.7041    1.9238    3.1388 C   0  0  2  0  0  0  0  0  0  0  0  0
    6.0298   -0.0345    3.4818 C   0  0  0  0  0  0  0  0  0  0  0  0
    9.4631    3.6627    2.8031 C   0  0  0  0  0  0  0  0  0  0  0  0
    6.6818    2.9983    3.5544 C   0  0  0  0  0  0  0  0  0  0  0  0
    6.0980   -1.3379    2.9303 O   0  0  0  0  0  0  0  0  0  0  0  0
    8.4256    4.7048    2.8328 N   0  0  0  0  0  0  0  0  0  0  0  0
    7.2988    4.4019    3.7460 C   0  0  1  0  0  0  0  0  0  0  0  0
    7.9840    5.1116    1.4785 C   0  0  0  0  0  0  0  0  0  0  0  0
    6.2414    5.4548    3.6076 C   0  0  0  0  0  0  0  0  0  0  0  0
    7.1226    6.4012    1.4779 C   0  0  0  0  0  0  0  0  0  0  0  0
    5.2118    5.6665    4.4821 N   0  0  0  0  0  0  0  0  0  0  0  0
    6.1210    6.3611    2.5761 C   0  0  0  0  0  0  0  0  0  0  0  0
    4.4124    6.6924    4.0223 C   0  0  0  0  0  0  0  0  0  0  0  0
    4.9674    7.1506    2.8234 C   0  0  0  0  0  0  0  0  0  0  0  0
    3.2521    7.2471    4.5758 C   0  0  0  0  0  0  0  0  0  0  0  0
    4.3375    8.2148    2.1496 C   0  0  0  0  0  0  0  0  0  0  0  0
    2.6439    8.3003    3.8859 C   0  0  0  0  0  0  0  0  0  0  0  0
    3.1767    8.7794    2.6911 C   0  0  0  0  0  0  0  0  0  0  0  0
  1  2  1  0
  1  3  1  0
  2  4  2  0
  3  5  1  0
  3  6  1  6
  4  7  1  0
  4  8  1  0
  5  9  1  6
  7 10  1  1
  8 11  1  0
  9 12  1  0
 13 10  1  6
 12 14  1  0
 13 15  1  0
 14 16  1  0
 15 17  4  0
 15 18  4  0
 17 19  4  0
 18 20  4  0
 19 21  4  0
 20 22  4  0
 21 23  4  0
 22 24  4  0
  5  7  1  0
 13 12  1  0
 16 18  1  0
 19 20  4  0
 23 24  4  0
M  END
