
     RDKit          3D

 28 32  0  0  0  0  0  0  0  0999 V2000
    7.5360   -2.2096    1.0124 O   0  0  0  0  0  0  0  0  0  0  0  0
    7.0075   -1.5182    1.8733 C   0  0  0  0  0  0  0  0  0  0  0  0
    6.2766   -0.2828    1.5301 C   0  0  0  0  0  0  0  0  0  0  0  0
    7.0992   -1.8670    3.3018 C   0  0  0  0  0  0  0  0  0  0  0  0
    5.6381    0.4498    2.4614 C   0  0  0  0  0  0  0  0  0  0  0  0
    6.4574   -1.1437    4.2295 C   0  0  0  0  0  0  0  0  0  0  0  0
    5.5658    0.0698    3.9427 C   0  0  1  0  0  0  0  0  0  0  0  0
    5.0240    1.7710    2.0755 C   0  0  0  0  0  0  0  0  0  0  0  0
    6.0537    1.2942    4.8322 C   0  0  1  0  0  0  0  0  0  0  0  0
    4.1343   -0.4190    4.2432 C   0  0  0  0  0  0  0  0  0  0  0  0
    5.7710    2.8786    2.8240 C   0  0  2  0  0  0  0  0  0  0  0  0
    5.5833    2.7358    4.3612 C   0  0  1  0  0  0  0  0  0  0  0  0
    5.8611    1.0910    6.3658 C   0  0  0  0  0  0  0  0  0  0  0  0
    5.4503    4.2759    2.2581 C   0  0  0  0  0  0  0  0  0  0  0  0
    4.2025    3.0612    4.9662 C   0  0  0  0  0  0  0  0  0  0  0  0
    4.5403    1.5994    6.9567 C   0  0  0  0  0  0  0  0  0  0  0  0
    6.5451    5.2888    2.5167 C   0  0  0  0  0  0  0  0  0  0  0  0
    4.2516    3.0262    6.5149 C   0  0  2  0  0  0  0  0  0  0  0  0
    3.4730    4.3733    4.6767 C   0  0  0  0  0  0  0  0  0  0  0  0
    7.7544    4.8914    3.1044 C   0  0  0  0  0  0  0  0  0  0  0  0
    6.3698    6.6357    2.1711 C   0  0  0  0  0  0  0  0  0  0  0  0
    2.8498    3.5224    6.8148 C   0  0  0  0  0  0  0  0  0  0  0  0
    5.2149    4.0265    7.1828 C   0  0  0  0  0  0  0  0  0  0  0  0
    2.3184    4.3823    5.6901 C   0  0  0  0  0  0  0  0  0  0  0  0
    8.7689    5.8214    3.3361 C   0  0  0  0  0  0  0  0  0  0  0  0
    7.3857    7.5642    2.4038 C   0  0  0  0  0  0  0  0  0  0  0  0
    2.2301    3.2832    7.8425 O   0  0  0  0  0  0  0  0  0  0  0  0
    8.5847    7.1571    2.9852 C   0  0  0  0  0  0  0  0  0  0  0  0
  1  2  2  0
  2  3  1  0
  2  4  1  0
  3  5  2  0
  4  6  2  0
  5  7  1  0
  5  8  1  0
  7  9  1  0
  7 10  1  1
  8 11  1  0
 12  9  1  0
  9 13  1  1
 11 14  1  6
 12 15  1  6
 13 16  1  0
 14 17  1  0
 15 18  1  0
 15 19  1  0
 17 20  4  0
 17 21  4  0
 18 22  1  0
 18 23  1  1
 19 24  1  0
 20 25  4  0
 21 26  4  0
 22 27  2  0
 25 28  4  0
  6  7  1  0
 12 11  1  0
 16 18  1  0
 22 24  1  0
 26 28  4  0
M  END
