
     RDKit          3D

 35 38  0  0  0  0  0  0  0  0999 V2000
    3.3833   -3.2420    4.3382 Cl  0  0  0  0  0  0  0  0  0  0  0  0
    3.7673   -1.5949    4.6513 C   0  0  0  0  0  0  0  0  0  0  0  0
    4.1407   -0.7607    3.6008 C   0  0  0  0  0  0  0  0  0  0  0  0
    3.7085   -1.1050    5.9557 C   0  0  0  0  0  0  0  0  0  0  0  0
    4.4380    0.5803    3.8540 C   0  0  0  0  0  0  0  0  0  0  0  0
    4.0124    0.2356    6.2120 C   0  0  0  0  0  0  0  0  0  0  0  0
    4.3482    1.0912    5.1561 C   0  0  0  0  0  0  0  0  0  0  0  0
    4.6718    2.5323    5.3759 C   0  0  0  0  0  0  0  0  0  0  0  0
    3.9738    3.1272    6.1970 O   0  0  0  0  0  0  0  0  0  0  0  0
    5.6773    3.1542    4.6126 N   0  0  0  0  0  0  0  0  0  0  0  0
    5.4329    4.3019    3.7859 C   0  0  0  0  0  0  0  0  0  0  0  0
    6.9859    2.4655    4.4529 C   0  0  0  0  0  0  0  0  0  0  0  0
    4.1251    4.6775    3.4422 C   0  0  0  0  0  0  0  0  0  0  0  0
    6.4964    5.0821    3.3098 C   0  0  0  0  0  0  0  0  0  0  0  0
    7.0530    1.1648    5.2627 C   0  0  0  0  0  0  0  0  0  0  0  0
    7.4306    2.2742    2.9895 C   0  0  0  0  0  0  0  0  0  0  0  0
    3.8829    5.8227    2.6751 C   0  0  0  0  0  0  0  0  0  0  0  0
    6.2536    6.2290    2.5425 C   0  0  0  0  0  0  0  0  0  0  0  0
    8.2556    0.3397    4.8192 C   0  0  0  0  0  0  0  0  0  0  0  0
    7.4630    0.8139    2.5242 C   0  0  0  0  0  0  0  0  0  0  0  0
    4.9472    6.6007    2.2297 C   0  0  0  0  0  0  0  0  0  0  0  0
    8.0745   -0.1461    3.4528 N   0  0  0  0  0  0  0  0  0  0  0  0
    9.2447   -0.8512    2.8919 C   0  0  0  0  0  0  0  0  0  0  0  0
   10.5531   -0.0734    3.1624 C   0  0  0  0  0  0  0  0  0  0  0  0
   10.2917    1.3283    2.9570 O   0  0  0  0  0  0  0  0  0  0  0  0
   11.0558   -0.3042    4.5969 C   0  0  0  0  0  0  0  0  0  0  0  0
   10.6098   -1.5613    5.1254 O   0  0  0  0  0  0  0  0  0  0  0  0
   11.5045   -2.5889    5.2241 C   0  0  0  0  0  0  0  0  0  0  0  0
   12.4091   -2.6694    4.1631 C   0  0  0  0  0  0  0  0  0  0  0  0
   11.5873   -3.5235    6.2541 C   0  0  0  0  0  0  0  0  0  0  0  0
   13.3770   -3.6791    4.1157 C   0  0  0  0  0  0  0  0  0  0  0  0
   12.5569   -4.5322    6.2095 C   0  0  0  0  0  0  0  0  0  0  0  0
   13.4527   -4.6197    5.1415 C   0  0  0  0  0  0  0  0  0  0  0  0
   14.3468   -5.6508    5.2266 O   0  0  0  0  0  0  0  0  0  0  0  0
   15.4194   -5.4871    6.1489 C   0  0  0  0  0  0  0  0  0  0  0  0
  1  2  1  0
  2  3  4  0
  2  4  4  0
  3  5  4  0
  4  6  4  0
  5  7  4  0
  7  8  1  0
  8  9  2  0
  8 10  1  0
 10 11  1  0
 10 12  1  0
 11 13  4  0
 11 14  4  0
 12 15  1  0
 12 16  1  0
 13 17  4  0
 14 18  4  0
 15 19  1  0
 16 20  1  0
 17 21  4  0
 19 22  1  0
 22 23  1  0
 23 24  1  0
 24 25  1  0
 24 26  1  0
 26 27  1  0
 27 28  1  0
 28 29  4  0
 28 30  4  0
 29 31  4  0
 30 32  4  0
 31 33  4  0
 33 34  1  0
 34 35  1  0
  6  7  4  0
 18 21  4  0
 20 22  1  0
 32 33  4  0
M  END
