
     RDKit          3D

 22 25  0  0  0  0  0  0  0  0999 V2000
    3.4498    8.4434    2.1188 O   0  0  0  0  0  0  0  0  0  0  0  0
    3.9999    7.4228    2.5273 C   0  0  0  0  0  0  0  0  0  0  0  0
    5.4716    7.3023    2.4152 C   0  0  0  0  0  0  0  0  0  0  0  0
    3.2273    6.3122    3.1929 C   0  0  0  0  0  0  0  0  0  0  0  0
    6.1337    6.2368    2.8977 C   0  0  0  0  0  0  0  0  0  0  0  0
    3.9629    4.9827    3.0852 C   0  0  0  0  0  0  0  0  0  0  0  0
    7.5858    6.1878    2.7880 C   0  0  0  0  0  0  0  0  0  0  0  0
    5.4323    5.0416    3.5874 C   0  0  1  0  0  0  0  0  0  0  0  0
    8.3090    5.1005    3.0947 C   0  0  0  0  0  0  0  0  0  0  0  0
    6.1900    3.7435    3.1196 C   0  0  0  0  0  0  0  0  0  0  0  0
    5.5017    5.3369    5.1242 C   0  0  0  0  0  0  0  0  0  0  0  0
    7.6987    3.7899    3.5264 C   0  0  1  0  0  0  0  0  0  0  0  0
    5.5176    2.3816    3.4297 C   0  0  0  0  0  0  0  0  0  0  0  0
    4.4335    4.7287    6.0194 C   0  0  0  0  0  0  0  0  0  0  0  0
    8.3878    2.5762    2.8920 C   0  0  2  0  0  0  0  0  0  0  0  0
    6.3334    1.1753    2.9246 C   0  0  0  0  0  0  0  0  0  0  0  0
    7.7798    1.2514    3.4045 C   0  0  1  0  0  0  0  0  0  0  0  0
    9.8925    2.3762    3.0539 C   0  0  0  0  0  0  0  0  0  0  0  0
    8.7592    0.2926    2.7526 C   0  0  0  0  0  0  0  0  0  0  0  0
    7.8758    1.0089    4.9225 C   0  0  0  0  0  0  0  0  0  0  0  0
   10.1067    0.9528    2.5177 C   0  0  0  0  0  0  0  0  0  0  0  0
    8.5117   -0.8730    2.4748 O   0  0  0  0  0  0  0  0  0  0  0  0
  1  2  2  0
  2  3  1  0
  2  4  1  0
  3  5  2  0
  4  6  1  0
  5  7  1  0
  5  8  1  0
  7  9  2  0
  8 10  1  0
  8 11  1  1
 12  9  1  6
 10 13  1  0
 11 14  1  0
 12 15  1  0
 13 16  1  0
 15 17  1  0
 15 18  1  1
 17 19  1  0
 17 20  1  1
 18 21  1  0
 19 22  2  0
  6  8  1  0
 10 12  1  0
 16 17  1  0
 19 21  1  0
M  END
