
     RDKit          3D

 26 30  0  0  0  0  0  0  0  0999 V2000
    5.2839    0.5961    5.6025 O   0  0  0  0  0  0  0  0  0  0  0  0
    6.0237    0.0025    4.8325 C   0  0  0  0  0  0  0  0  0  0  0  0
    5.7410   -1.1847    4.2385 O   0  0  0  0  0  0  0  0  0  0  0  0
    7.3761    0.4928    4.4536 C   0  0  0  0  0  0  0  0  0  0  0  0
    5.8936   -2.3170    5.0953 C   0  0  0  0  0  0  0  0  0  0  0  0
    8.4729   -0.1945    4.8132 C   0  0  0  0  0  0  0  0  0  0  0  0
    7.4919    1.7478    3.6201 C   0  0  2  0  0  0  0  0  0  0  0  0
    9.7638    0.1026    4.4594 O   0  0  0  0  0  0  0  0  0  0  0  0
    8.9495    2.2527    3.6150 C   0  0  1  0  0  0  0  0  0  0  0  0
    6.5700    2.9132    4.0522 C   0  0  0  0  0  0  0  0  0  0  0  0
    9.9068    1.0717    3.4032 C   0  0  0  0  0  0  0  0  0  0  0  0
    9.1126    3.3774    2.5773 C   0  0  0  0  0  0  0  0  0  0  0  0
    7.1496    4.3011    3.7060 C   0  0  0  0  0  0  0  0  0  0  0  0
   11.3740    1.4906    3.3959 C   0  0  0  0  0  0  0  0  0  0  0  0
    7.9062    4.2040    2.4375 N   0  0  0  0  0  0  0  0  0  0  0  0
    6.0747    5.3387    3.5873 C   0  0  0  0  0  0  0  0  0  0  0  0
    8.2154    5.5223    1.8389 C   0  0  0  0  0  0  0  0  0  0  0  0
    5.0482    5.5390    4.4695 N   0  0  0  0  0  0  0  0  0  0  0  0
    5.9693    6.2892    2.5925 C   0  0  0  0  0  0  0  0  0  0  0  0
    6.9447    6.3280    1.4699 C   0  0  0  0  0  0  0  0  0  0  0  0
    4.2755    6.6046    4.0575 C   0  0  0  0  0  0  0  0  0  0  0  0
    4.8343    7.0940    2.8736 C   0  0  0  0  0  0  0  0  0  0  0  0
    3.1309    7.1643    4.6382 C   0  0  0  0  0  0  0  0  0  0  0  0
    4.2215    8.1920    2.2392 C   0  0  0  0  0  0  0  0  0  0  0  0
    2.5425    8.2550    3.9905 C   0  0  0  0  0  0  0  0  0  0  0  0
    3.0773    8.7630    2.8085 C   0  0  0  0  0  0  0  0  0  0  0  0
  1  2  2  0
  2  3  1  0
  2  4  1  0
  3  5  1  0
  4  6  2  0
  4  7  1  0
  6  8  1  0
  7  9  1  0
  7 10  1  1
  8 11  1  0
  9 12  1  6
 13 10  1  0
 11 14  1  0
 12 15  1  0
 13 16  1  0
 15 17  1  0
 16 18  4  0
 16 19  4  0
 17 20  1  0
 18 21  4  0
 19 22  4  0
 21 23  4  0
 22 24  4  0
 23 25  4  0
 24 26  4  0
  9 11  1  0
 13 15  1  0
 19 20  1  0
 21 22  4  0
 25 26  4  0
M  END
