
     RDKit          3D

 23 26  0  0  0  0  0  0  0  0999 V2000
    3.5659    3.3066    5.5930 O   0  0  0  0  0  0  0  0  0  0  0  0
    4.4441    3.3411    4.7398 C   0  0  0  0  0  0  0  0  0  0  0  0
    4.7785    4.6024    4.0168 C   0  0  0  0  0  0  0  0  0  0  0  0
    5.2300    2.1105    4.3037 C   0  0  0  0  0  0  0  0  0  0  0  0
    3.7776    5.0966    3.2749 C   0  0  0  0  0  0  0  0  0  0  0  0
    6.2503    4.9877    3.9516 C   0  0  1  0  0  0  0  0  0  0  0  0
    6.2477    2.4951    3.2151 C   0  0  1  0  0  0  0  0  0  0  0  0
    4.1120    6.0024    2.1547 C   0  0  0  0  0  0  0  0  0  0  0  0
    7.1125    3.6831    3.7394 C   0  0  1  0  0  0  0  0  0  0  0  0
    6.4698    6.1189    2.9076 C   0  0  0  0  0  0  0  0  0  0  0  0
    6.6452    5.5909    5.3271 C   0  0  0  0  0  0  0  0  0  0  0  0
    7.1264    1.3748    2.6527 C   0  0  1  0  0  0  0  0  0  0  0  0
    3.2196    6.6024    1.5649 O   0  0  0  0  0  0  0  0  0  0  0  0
    5.5533    6.0281    1.6986 C   0  0  0  0  0  0  0  0  0  0  0  0
    8.4274    3.8100    2.9481 C   0  0  0  0  0  0  0  0  0  0  0  0
    8.5165    1.2495    3.3036 C   0  0  2  0  0  0  0  0  0  0  0  0
    6.5992   -0.0510    2.5594 C   0  0  0  0  0  0  0  0  0  0  0  0
    9.3109    2.5379    3.0363 C   0  0  0  0  0  0  0  0  0  0  0  0
    8.9986    0.0132    2.5539 C   0  0  0  0  0  0  0  0  0  0  0  0
    8.5391    0.8569    4.7916 C   0  0  0  0  0  0  0  0  0  0  0  0
    7.8193   -0.8162    2.0231 C   0  0  1  0  0  0  0  0  0  0  0  0
   10.1711   -0.3227    2.4345 O   0  0  0  0  0  0  0  0  0  0  0  0
    7.8089   -2.1496    2.4732 O   0  0  0  0  0  0  0  0  0  0  0  0
  1  2  2  0
  2  3  1  0
  2  4  1  0
  3  5  2  0
  3  6  1  0
  7  4  1  1
  5  8  1  0
  6  9  1  0
  6 10  1  0
  6 11  1  1
  7 12  1  0
  8 13  2  0
  8 14  1  0
  9 15  1  6
 12 16  1  0
 12 17  1  1
 15 18  1  0
 16 19  1  0
 16 20  1  1
 17 21  1  0
 19 22  2  0
 21 23  1  1
  7  9  1  0
 10 14  1  0
 16 18  1  0
 19 21  1  0
M  END
