
     RDKit          3D

 22 24  0  0  0  0  0  0  0  0999 V2000
   10.5001    1.5625    0.9041 Br  0  0  0  0  0  0  0  0  0  0  0  0
    9.1141    2.1636    2.0399 C   0  0  0  0  0  0  0  0  0  0  0  0
    8.5178    1.2763    2.9322 C   0  0  0  0  0  0  0  0  0  0  0  0
    8.6981    3.4903    1.9820 C   0  0  0  0  0  0  0  0  0  0  0  0
    7.4952    1.7193    3.7752 C   0  0  0  0  0  0  0  0  0  0  0  0
    7.6751    3.9325    2.8234 C   0  0  0  0  0  0  0  0  0  0  0  0
    7.0576    3.0532    3.7289 C   0  0  0  0  0  0  0  0  0  0  0  0
    5.9608    3.5839    4.6601 C   0  0  0  0  0  0  0  0  0  0  0  0
    5.9146    5.1386    4.6756 C   0  0  2  0  0  0  0  0  0  0  0  0
    4.5984    2.9715    4.2775 C   0  0  0  0  0  0  0  0  0  0  0  0
    5.2627    5.5863    5.8703 O   0  0  0  0  0  0  0  0  0  0  0  0
    5.1916    5.7605    3.4952 C   0  0  0  0  0  0  0  0  0  0  0  0
    4.6804    1.5482    4.0126 N   0  0  0  0  0  0  0  0  0  0  0  0
    3.7945    5.6731    3.3968 C   0  0  0  0  0  0  0  0  0  0  0  0
    5.9001    6.4202    2.4782 C   0  0  0  0  0  0  0  0  0  0  0  0
    4.6042    1.0892    2.7513 N   0  0  0  0  0  0  0  0  0  0  0  0
    4.8559    0.5318    4.9020 C   0  0  0  0  0  0  0  0  0  0  0  0
    3.1226    6.2453    2.3152 C   0  0  0  0  0  0  0  0  0  0  0  0
    5.2255    6.9926    1.3992 C   0  0  0  0  0  0  0  0  0  0  0  0
    4.7106   -0.2321    2.8034 N   0  0  0  0  0  0  0  0  0  0  0  0
    4.8638   -0.5920    4.1123 C   0  0  0  0  0  0  0  0  0  0  0  0
    3.8376    6.9065    1.3189 C   0  0  0  0  0  0  0  0  0  0  0  0
  1  2  1  0
  2  3  4  0
  2  4  4  0
  3  5  4  0
  4  6  4  0
  5  7  4  0
  7  8  1  0
  8  9  1  0
  8 10  1  0
  9 11  1  1
  9 12  1  0
 10 13  1  0
 12 14  4  0
 12 15  4  0
 13 16  4  0
 13 17  4  0
 14 18  4  0
 15 19  4  0
 16 20  4  0
 17 21  4  0
 18 22  4  0
  6  7  4  0
 19 22  4  0
 20 21  4  0
M  END
