
     RDKit          3D

 23 25  0  0  0  0  0  0  0  0999 V2000
    9.4982    0.8292    1.0177 O   0  0  0  0  0  0  0  0  0  0  0  0
    9.1396    1.8238    1.6442 C   0  0  0  0  0  0  0  0  0  0  0  0
    9.0292    3.1221    0.9398 C   0  0  0  0  0  0  0  0  0  0  0  0
    8.8327    1.7694    3.1211 C   0  0  0  0  0  0  0  0  0  0  0  0
    8.7777    4.2629    1.6057 C   0  0  0  0  0  0  0  0  0  0  0  0
    8.0211    2.9768    3.5926 C   0  0  0  0  0  0  0  0  0  0  0  0
    8.5974    4.3315    3.1186 C   0  0  2  0  0  0  0  0  0  0  0  0
    8.5474    5.5484    0.8655 C   0  0  0  0  0  0  0  0  0  0  0  0
    7.7073    5.5810    3.5157 C   0  0  0  0  0  0  0  0  0  0  0  0
   10.0040    4.5312    3.7479 C   0  0  0  0  0  0  0  0  0  0  0  0
    7.0718    5.8924    1.0285 C   0  0  0  0  0  0  0  0  0  0  0  0
    6.6008    5.9993    2.5045 C   0  0  1  0  0  0  0  0  0  0  0  0
    7.1959    5.5952    4.9642 C   0  0  0  0  0  0  0  0  0  0  0  0
    5.2040    5.3337    2.7433 C   0  0  1  0  0  0  0  0  0  0  0  0
    5.8479    4.9176    5.1738 C   0  0  0  0  0  0  0  0  0  0  0  0
    4.7196    5.4331    4.2447 C   0  0  2  0  0  0  0  0  0  0  0  0
    4.1478    5.8899    1.7359 C   0  0  0  0  0  0  0  0  0  0  0  0
    3.4632    4.5162    4.4413 C   0  0  0  0  0  0  0  0  0  0  0  0
    4.3645    6.8896    4.6350 C   0  0  0  0  0  0  0  0  0  0  0  0
    4.3388    7.3294    1.4906 C   0  0  0  0  0  0  0  0  0  0  0  0
    3.4233    3.8225    5.7410 C   0  0  0  0  0  0  0  0  0  0  0  0
    4.5080    8.4596    1.2941 N   0  0  0  0  0  0  0  0  0  0  0  0
    3.3946    3.2826    6.7672 N   0  0  0  0  0  0  0  0  0  0  0  0
  1  2  2  0
  2  3  1  0
  2  4  1  0
  3  5  2  0
  4  6  1  0
  5  7  1  0
  5  8  1  0
  7  9  1  0
  7 10  1  1
  8 11  1  0
  9 12  1  0
  9 13  1  0
 12 14  1  0
 13 15  1  0
 16 14  1  0
 14 17  1  6
 16 18  1  0
 16 19  1  1
 17 20  1  0
 18 21  1  0
 20 22  3  0
 21 23  3  0
  6  7  1  0
 12 11  1  6
 15 16  1  0
M  END
