
     RDKit          3D

 23 27  0  0  0  0  0  0  0  0999 V2000
    3.6820    8.3884    4.5219 O   0  0  0  0  0  0  0  0  0  0  0  0
    4.1942    7.2830    4.3810 C   0  0  0  0  0  0  0  0  0  0  0  0
    4.7767    6.8934    3.0727 C   0  0  0  0  0  0  0  0  0  0  0  0
    4.2245    6.2374    5.4801 C   0  0  0  0  0  0  0  0  0  0  0  0
    5.2844    5.6523    2.9358 C   0  0  0  0  0  0  0  0  0  0  0  0
    5.5117    5.4091    5.3664 C   0  0  0  0  0  0  0  0  0  0  0  0
    3.1014    5.2431    5.1881 C   0  0  0  0  0  0  0  0  0  0  0  0
    5.2365    4.6082    4.0669 C   0  0  1  0  0  0  0  0  0  0  0  0
    6.1703    5.3426    1.7672 C   0  0  0  0  0  0  0  0  0  0  0  0
    3.7758    4.1263    4.3732 C   0  0  1  0  0  0  0  0  0  0  0  0
    6.2689    3.4448    3.8664 C   0  0  2  0  0  0  0  0  0  0  0  0
    7.5731    5.1117    2.3230 C   0  0  0  0  0  0  0  0  0  0  0  0
    3.7852    2.9632    5.2041 O   0  0  0  0  0  0  0  0  0  0  0  0
    7.6619    3.9129    3.2976 C   0  0  2  0  0  0  0  0  0  0  0  0
    5.7543    2.2215    3.0483 C   0  0  0  0  0  0  0  0  0  0  0  0
    8.3740    2.7449    2.5864 C   0  0  2  0  0  0  0  0  0  0  0  0
    6.6959    0.9966    3.1516 C   0  0  0  0  0  0  0  0  0  0  0  0
    8.1717    1.3882    3.2820 C   0  0  1  0  0  0  0  0  0  0  0  0
    9.8814    2.8405    2.3627 C   0  0  0  0  0  0  0  0  0  0  0  0
    9.1500    0.5679    2.4538 C   0  0  0  0  0  0  0  0  0  0  0  0
    8.6696    1.2979    4.7356 C   0  0  0  0  0  0  0  0  0  0  0  0
   10.2380    1.4391    1.8506 C   0  0  0  0  0  0  0  0  0  0  0  0
    9.0933   -0.6461    2.3073 O   0  0  0  0  0  0  0  0  0  0  0  0
  1  2  2  0
  2  3  1  0
  2  4  1  0
  3  5  2  0
  4  6  1  0
  4  7  1  0
  5  8  1  0
  5  9  1  0
  7 10  1  0
  8 11  1  0
  9 12  1  0
 10 13  1  1
 11 14  1  0
 11 15  1  6
 14 16  1  0
 15 17  1  0
 16 18  1  0
 16 19  1  1
 18 20  1  0
 18 21  1  1
 19 22  1  0
 20 23  2  0
  8  6  1  1
  8 10  1  0
 14 12  1  6
 17 18  1  0
 20 22  1  0
M  END
