
     RDKit          3D

 21 25  0  0  0  0  0  0  0  0999 V2000
    7.5633    6.3304    2.7215 N   0  0  0  0  0  0  0  0  0  0  0  0
    6.8735    5.1729    2.8347 C   0  0  0  0  0  0  0  0  0  0  0  0
    8.9081    6.3951    2.7508 C   0  0  0  0  0  0  0  0  0  0  0  0
    6.7678    7.5656    2.5777 C   0  0  0  0  0  0  0  0  0  0  0  0
    7.5920    3.9807    3.0079 C   0  0  0  0  0  0  0  0  0  0  0  0
    5.3761    5.2074    2.8062 C   0  0  0  0  0  0  0  0  0  0  0  0
    9.6730    5.2638    2.9025 C   0  0  0  0  0  0  0  0  0  0  0  0
    5.7409    7.3725    1.4586 C   0  0  0  0  0  0  0  0  0  0  0  0
    7.0636    2.7153    3.1583 N   0  0  0  0  0  0  0  0  0  0  0  0
    9.0087    4.0449    3.0352 C   0  0  0  0  0  0  0  0  0  0  0  0
    4.8829    6.0915    1.6479 C   0  0  0  0  0  0  0  0  0  0  0  0
    4.8961    8.6405    1.2780 C   0  0  0  0  0  0  0  0  0  0  0  0
    8.2123    1.9474    3.2815 C   0  0  0  0  0  0  0  0  0  0  0  0
    9.4352    2.6709    3.2182 C   0  0  0  0  0  0  0  0  0  0  0  0
    3.3897    6.3999    1.8160 C   0  0  0  0  0  0  0  0  0  0  0  0
    3.7696    8.4107    0.2785 C   0  0  0  0  0  0  0  0  0  0  0  0
    8.2822    0.5563    3.4592 C   0  0  0  0  0  0  0  0  0  0  0  0
   10.6796    2.0075    3.3318 C   0  0  0  0  0  0  0  0  0  0  0  0
    2.8455    7.2609    0.6787 C   0  0  0  0  0  0  0  0  0  0  0  0
    9.5213   -0.0790    3.5686 C   0  0  0  0  0  0  0  0  0  0  0  0
   10.7175    0.6321    3.5067 C   0  0  0  0  0  0  0  0  0  0  0  0
  1  2  4  0
  1  3  4  0
  1  4  1  0
  2  5  4  0
  2  6  1  0
  3  7  4  0
  4  8  1  0
  5  9  4  0
  5 10  4  0
  6 11  1  0
  8 12  1  0
  9 13  4  0
 10 14  4  0
 11 15  1  0
 12 16  1  0
 13 17  4  0
 14 18  4  0
 15 19  1  0
 17 20  4  0
 18 21  4  0
  7 10  4  0
  8 11  1  0
 13 14  4  0
 16 19  1  0
 20 21  4  0
M  CHG  2   1   1   9  -1
M  END
