
     RDKit          3D

 31 34  0  0  0  0  0  0  0  0999 V2000
    2.1784   -1.0970    2.5606 Cl  0  0  0  0  0  0  0  0  0  0  0  0
    9.8061   -2.5899    1.6271 O   0  0  0  0  0  0  0  0  0  0  0  0
    9.6194   -1.2395    1.6956 C   0  0  0  0  0  0  0  0  0  0  0  0
   11.0980   -3.0785    1.9700 C   0  0  0  0  0  0  0  0  0  0  0  0
    8.9541   -0.5592    2.7159 C   0  0  0  0  0  0  0  0  0  0  0  0
   10.1250   -0.5188    0.6233 C   0  0  0  0  0  0  0  0  0  0  0  0
    8.7865    0.8522    2.6845 C   0  0  0  0  0  0  0  0  0  0  0  0
   10.0045    0.8704    0.5960 C   0  0  0  0  0  0  0  0  0  0  0  0
    9.3602    1.5669    1.6053 C   0  0  0  0  0  0  0  0  0  0  0  0
    8.0800    1.6115    3.6638 C   0  0  0  0  0  0  0  0  0  0  0  0
    9.3090    2.9015    1.5022 N   0  0  0  0  0  0  0  0  0  0  0  0
    8.0808    3.0114    3.5569 C   0  0  0  0  0  0  0  0  0  0  0  0
    7.3329    0.9978    4.8326 C   0  0  2  0  0  0  0  0  0  0  0  0
    8.7025    3.5999    2.4752 C   0  0  0  0  0  0  0  0  0  0  0  0
    8.1732   -0.0085    5.4151 O   0  0  0  0  0  0  0  0  0  0  0  0
    5.8992    0.3894    4.5585 C   0  0  2  0  0  0  0  0  0  0  0  0
    4.7184    0.9563    5.4346 N   0  0  1  0  0  0  0  0  0  0  0  0
    5.9094   -1.1532    4.7693 C   0  0  0  0  0  0  0  0  0  0  0  0
    4.4374    2.4204    5.1150 C   0  0  0  0  0  0  0  0  0  0  0  0
    3.4007    0.1834    5.0859 C   0  0  0  0  0  0  0  0  0  0  0  0
    5.0066    0.7186    6.9261 C   0  0  0  0  0  0  0  0  0  0  0  0
    4.9830   -1.5824    5.9173 C   0  0  2  0  0  0  0  0  0  0  0  0
    4.7673    2.9300    3.8467 C   0  0  0  0  0  0  0  0  0  0  0  0
    3.7901    3.2731    6.0205 C   0  0  0  0  0  0  0  0  0  0  0  0
    3.5217   -1.2976    5.5109 C   0  0  0  0  0  0  0  0  0  0  0  0
    5.3557   -0.7525    7.1498 C   0  0  0  0  0  0  0  0  0  0  0  0
    4.4968    4.2596    3.5111 C   0  0  0  0  0  0  0  0  0  0  0  0
    3.5198    4.6038    5.6812 C   0  0  0  0  0  0  0  0  0  0  0  0
    2.5667   -1.8036    6.5728 C   0  0  0  0  0  0  0  0  0  0  0  0
    3.8781    5.0969    4.4312 C   0  0  0  0  0  0  0  0  0  0  0  0
    2.0843   -1.1743    7.6524 C   0  0  0  0  0  0  0  0  0  0  0  0
  2  3  1  0
  2  4  1  0
  3  5  4  0
  3  6  4  0
  5  7  4  0
  6  8  4  0
  7  9  4  0
  7 10  4  0
  9 11  4  0
 10 12  4  0
 10 13  1  0
 11 14  4  0
 13 15  1  6
 13 16  1  0
 16 17  1  0
 16 18  1  1
 17 19  1  1
 17 20  1  0
 17 21  1  0
 22 18  1  6
 19 23  4  0
 19 24  4  0
 20 25  1  0
 21 26  1  0
 23 27  4  0
 24 28  4  0
 25 29  1  0
 27 30  4  0
 29 31  2  0
  8  9  4  0
 12 14  4  0
 22 25  1  0
 22 26  1  0
 28 30  4  0
M  CHG  2   1  -1  17   1
M  END
