
     RDKit          3D

 37 40  0  0  0  0  0  0  0  0999 V2000
    4.7397    8.8297    1.0954 Cl  0  0  0  0  0  0  0  0  0  0  0  0
    5.1709    7.3187    1.7967 C   0  0  0  0  0  0  0  0  0  0  0  0
    4.3252    6.7202    2.7287 C   0  0  0  0  0  0  0  0  0  0  0  0
    6.3622    6.6987    1.4307 C   0  0  0  0  0  0  0  0  0  0  0  0
    4.6732    5.4911    3.3015 C   0  0  0  0  0  0  0  0  0  0  0  0
    6.7039    5.4700    2.0014 C   0  0  0  0  0  0  0  0  0  0  0  0
    5.8644    4.8602    2.9393 C   0  0  0  0  0  0  0  0  0  0  0  0
    6.3145    3.6585    3.4121 O   0  0  0  0  0  0  0  0  0  0  0  0
    5.9760    3.3228    4.7591 C   0  0  0  0  0  0  0  0  0  0  0  0
    4.6106    2.6251    4.7870 C   0  0  2  0  0  0  0  0  0  0  0  0
    4.1017    2.6065    6.1262 O   0  0  0  0  0  0  0  0  0  0  0  0
    4.6226    1.2087    4.1534 C   0  0  0  0  0  0  0  0  0  0  0  0
    5.3234    0.1422    4.8989 N   0  0  0  0  0  0  0  0  0  0  0  0
    4.8157    0.0752    6.2832 C   0  0  0  0  0  0  0  0  0  0  0  0
    6.7855    0.3265    4.9329 C   0  0  0  0  0  0  0  0  0  0  0  0
    5.5289   -1.0047    7.1284 C   0  0  0  0  0  0  0  0  0  0  0  0
    7.5002   -0.7381    5.8002 C   0  0  0  0  0  0  0  0  0  0  0  0
    6.9949   -0.7922    7.1986 N   0  0  0  0  0  0  0  0  0  0  0  0
    7.6759   -1.8932    7.9577 C   0  0  0  0  0  0  0  0  0  0  0  0
    7.0406   -3.2653    7.6985 C   0  0  0  0  0  0  0  0  0  0  0  0
    9.2072   -2.0061    7.6700 C   0  0  0  0  0  0  0  0  0  0  0  0
    6.6324   -4.1047    8.7495 C   0  0  0  0  0  0  0  0  0  0  0  0
    6.8344   -3.6982    6.3779 C   0  0  0  0  0  0  0  0  0  0  0  0
    9.4993   -2.8312    6.5053 N   0  0  0  0  0  0  0  0  0  0  0  0
    6.0417   -5.3423    8.4873 C   0  0  0  0  0  0  0  0  0  0  0  0
    6.2414   -4.9356    6.1181 C   0  0  0  0  0  0  0  0  0  0  0  0
   10.2924   -2.3888    5.4720 C   0  0  0  0  0  0  0  0  0  0  0  0
    5.8467   -5.7572    7.1721 C   0  0  0  0  0  0  0  0  0  0  0  0
   10.9713   -1.3695    5.5183 O   0  0  0  0  0  0  0  0  0  0  0  0
   10.3314   -3.2622    4.2689 C   0  0  0  0  0  0  0  0  0  0  0  0
   10.4435   -4.6538    4.3695 C   0  0  0  0  0  0  0  0  0  0  0  0
   10.2499   -2.6640    3.0075 C   0  0  0  0  0  0  0  0  0  0  0  0
   10.4979   -5.4407    3.2121 C   0  0  0  0  0  0  0  0  0  0  0  0
   10.3098   -3.4532    1.8565 C   0  0  0  0  0  0  0  0  0  0  0  0
   10.4421   -4.8419    1.9513 C   0  0  0  0  0  0  0  0  0  0  0  0
   10.4974   -5.4923    0.7495 O   0  0  0  0  0  0  0  0  0  0  0  0
   11.7280   -6.1188    0.4112 C   0  0  0  0  0  0  0  0  0  0  0  0
  1  2  1  0
  2  3  4  0
  2  4  4  0
  3  5  4  0
  4  6  4  0
  5  7  4  0
  7  8  1  0
  8  9  1  0
  9 10  1  0
 10 11  1  1
 10 12  1  0
 12 13  1  0
 13 14  1  0
 13 15  1  0
 14 16  1  0
 15 17  1  0
 16 18  1  0
 18 19  1  0
 19 20  1  0
 19 21  1  0
 20 22  4  0
 20 23  4  0
 21 24  1  0
 22 25  4  0
 23 26  4  0
 24 27  1  0
 25 28  4  0
 27 29  2  0
 27 30  1  0
 30 31  4  0
 30 32  4  0
 31 33  4  0
 32 34  4  0
 33 35  4  0
 35 36  1  0
 36 37  1  0
  6  7  4  0
 17 18  1  0
 26 28  4  0
 34 35  4  0
M  END
