
     RDKit          3D

 23 24  0  0  0  0  0  0  0  0999 V2000
    8.4506    5.5527    3.4671 O   0  0  0  0  0  0  0  0  0  0  0  0
    7.8274    4.3319    3.4660 C   0  0  0  0  0  0  0  0  0  0  0  0
    6.4222    4.2711    3.5197 C   0  0  0  0  0  0  0  0  0  0  0  0
    8.6195    3.1797    3.4022 C   0  0  0  0  0  0  0  0  0  0  0  0
    5.8485    2.9902    3.4930 C   0  0  0  0  0  0  0  0  0  0  0  0
    5.6026    5.5627    3.6037 C   0  0  1  0  0  0  0  0  0  0  0  0
    8.0275    1.9146    3.3729 C   0  0  0  0  0  0  0  0  0  0  0  0
    4.4897    2.8467    3.5141 O   0  0  0  0  0  0  0  0  0  0  0  0
    6.6331    1.8307    3.4295 C   0  0  0  0  0  0  0  0  0  0  0  0
    5.2215    6.0901    2.2311 C   0  0  0  0  0  0  0  0  0  0  0  0
    4.3923    5.5546    4.6008 C   0  0  2  0  0  0  0  0  0  0  0  0
    8.8691    0.6654    3.3142 C   0  0  0  0  0  0  0  0  0  0  0  0
    3.9591    6.3106    1.8218 C   0  0  0  0  0  0  0  0  0  0  0  0
    4.6609    4.8551    5.9367 C   0  0  0  0  0  0  0  0  0  0  0  0
    3.0762    5.1388    3.9172 C   0  0  0  0  0  0  0  0  0  0  0  0
   10.1232    0.7475    2.4325 C   0  0  0  0  0  0  0  0  0  0  0  0
    2.7681    6.0095    2.6948 C   0  0  0  0  0  0  0  0  0  0  0  0
    3.6529    6.8696    0.4631 C   0  0  0  0  0  0  0  0  0  0  0  0
    4.3531    3.5718    6.1929 C   0  0  0  0  0  0  0  0  0  0  0  0
    5.2932    5.7147    6.9998 C   0  0  0  0  0  0  0  0  0  0  0  0
   10.1179   -0.1753    1.2067 C   0  0  0  0  0  0  0  0  0  0  0  0
    9.9651   -1.6738    1.4727 C   0  0  0  0  0  0  0  0  0  0  0  0
   11.1650   -2.2990    2.1668 C   0  0  0  0  0  0  0  0  0  0  0  0
  1  2  1  0
  2  3  4  0
  2  4  4  0
  3  5  4  0
  6  3  1  6
  4  7  4  0
  5  8  1  0
  5  9  4  0
  6 10  1  0
  6 11  1  0
  7 12  1  0
 10 13  2  0
 11 14  1  1
 11 15  1  0
 12 16  1  0
 13 17  1  0
 13 18  1  0
 14 19  2  0
 14 20  1  0
 16 21  1  0
 21 22  1  0
 22 23  1  0
  7  9  4  0
 15 17  1  0
M  END
