
     RDKit          3D

 38 41  0  0  0  0  0  0  0  0999 V2000
    3.6908    4.5116    5.3678 O   0  0  0  0  0  0  0  0  0  0  0  0
    4.3947    4.1720    4.4211 C   0  0  0  0  0  0  0  0  0  0  0  0
    4.7849    2.8693    4.2190 N   0  0  0  0  0  0  0  0  0  0  0  0
    4.8804    5.1928    3.4321 C   0  0  0  0  0  0  0  0  0  0  0  0
    4.9201    1.9188    5.3135 C   0  0  0  0  0  0  0  0  0  0  0  0
    6.2382    5.5092    3.2050 C   0  0  0  0  0  0  0  0  0  0  0  0
    3.8849    5.8612    2.6952 C   0  0  0  0  0  0  0  0  0  0  0  0
    4.4221    0.4870    4.9379 C   0  0  0  0  0  0  0  0  0  0  0  0
    7.1828    4.8218    3.9258 O   0  0  0  0  0  0  0  0  0  0  0  0
    6.5592    6.4929    2.2582 C   0  0  0  0  0  0  0  0  0  0  0  0
    4.2203    6.8348    1.7565 C   0  0  0  0  0  0  0  0  0  0  0  0
    5.4713   -0.4925    4.5432 N   0  0  0  0  0  0  0  0  0  0  0  0
    3.6264   -0.0303    6.1453 C   0  0  0  0  0  0  0  0  0  0  0  0
    7.9313    3.8066    3.2654 C   0  0  0  0  0  0  0  0  0  0  0  0
    5.5562    7.1505    1.5404 C   0  0  0  0  0  0  0  0  0  0  0  0
    6.8325    0.0146    4.8528 C   0  0  0  0  0  0  0  0  0  0  0  0
    5.3069   -1.8460    5.0879 C   0  0  0  0  0  0  0  0  0  0  0  0
    3.9149    0.4048    7.4497 C   0  0  0  0  0  0  0  0  0  0  0  0
    2.5540   -0.9150    5.9532 C   0  0  0  0  0  0  0  0  0  0  0  0
    7.6210   -0.7460    5.9531 C   0  0  0  0  0  0  0  0  0  0  0  0
    5.6706   -2.0269    6.5822 C   0  0  0  0  0  0  0  0  0  0  0  0
    3.1680   -0.0553    8.5349 C   0  0  0  0  0  0  0  0  0  0  0  0
    1.8066   -1.3733    7.0399 C   0  0  0  0  0  0  0  0  0  0  0  0
    6.7599   -1.1559    7.0731 N   0  0  0  0  0  0  0  0  0  0  0  0
    2.1171   -0.9476    8.3298 C   0  0  0  0  0  0  0  0  0  0  0  0
    7.5065   -1.8138    8.1530 C   0  0  0  0  0  0  0  0  0  0  0  0
    7.9866   -3.2670    7.9048 C   0  0  0  0  0  0  0  0  0  0  0  0
    8.4336   -3.8158    9.1582 O   0  0  0  0  0  0  0  0  0  0  0  0
    9.1277   -3.3683    6.8809 C   0  0  0  0  0  0  0  0  0  0  0  0
   10.0911   -2.3417    7.1036 O   0  0  0  0  0  0  0  0  0  0  0  0
   11.2225   -2.3856    6.3398 C   0  0  0  0  0  0  0  0  0  0  0  0
   11.4589   -1.6419    5.1857 C   0  0  0  0  0  0  0  0  0  0  0  0
   12.2086   -3.2566    6.8045 C   0  0  0  0  0  0  0  0  0  0  0  0
   12.6621   -1.7998    4.4891 C   0  0  0  0  0  0  0  0  0  0  0  0
   13.4121   -3.4139    6.1091 C   0  0  0  0  0  0  0  0  0  0  0  0
   13.6393   -2.6910    4.9395 C   0  0  0  0  0  0  0  0  0  0  0  0
   14.7571   -2.7587    4.1554 O   0  0  0  0  0  0  0  0  0  0  0  0
   15.9997   -2.9424    4.8231 C   0  0  0  0  0  0  0  0  0  0  0  0
  1  2  2  0
  2  3  1  0
  2  4  1  0
  3  5  1  0
  4  6  4  0
  4  7  4  0
  5  8  1  0
  6  9  1  0
  6 10  4  0
  7 11  4  0
  8 12  1  0
  8 13  1  0
  9 14  1  0
 10 15  4  0
 12 16  1  0
 12 17  1  0
 13 18  4  0
 13 19  4  0
 16 20  1  0
 17 21  1  0
 18 22  4  0
 19 23  4  0
 20 24  1  0
 22 25  4  0
 24 26  1  0
 26 27  1  0
 27 28  1  0
 27 29  1  0
 29 30  1  0
 30 31  1  0
 31 32  4  0
 31 33  4  0
 32 34  4  0
 33 35  4  0
 34 36  4  0
 36 37  1  0
 37 38  1  0
 11 15  4  0
 21 24  1  0
 23 25  4  0
 35 36  4  0
M  END
