
     RDKit          3D

 23 26  0  0  0  0  0  0  0  0999 V2000
    6.2203    8.4964    1.8452 S   0  0  0  0  0  0  0  0  0  0  0  0
    5.4829    7.0651    2.5117 C   0  0  0  0  0  0  0  0  0  0  0  0
    5.7481    8.3179    0.1082 C   0  0  0  0  0  0  0  0  0  0  0  0
    3.9744    7.0568    2.5271 C   0  0  0  0  0  0  0  0  0  0  0  0
    6.1861    6.0477    3.0672 C   0  0  0  0  0  0  0  0  0  0  0  0
    3.3003    7.8835    1.9133 O   0  0  0  0  0  0  0  0  0  0  0  0
    3.2994    6.0179    3.3794 C   0  0  0  0  0  0  0  0  0  0  0  0
    5.5211    4.7764    3.6502 C   0  0  1  0  0  0  0  0  0  0  0  0
    7.7040    6.0633    3.1996 C   0  0  0  0  0  0  0  0  0  0  0  0
    4.0261    4.6971    3.2356 C   0  0  0  0  0  0  0  0  0  0  0  0
    6.2473    3.4906    3.0896 C   0  0  1  0  0  0  0  0  0  0  0  0
    5.5970    4.8515    5.1942 C   0  0  0  0  0  0  0  0  0  0  0  0
    8.3492    4.8155    2.6081 C   0  0  0  0  0  0  0  0  0  0  0  0
    7.7974    3.5469    3.2613 C   0  0  2  0  0  0  0  0  0  0  0  0
    5.6548    2.1484    3.6087 C   0  0  0  0  0  0  0  0  0  0  0  0
    8.3989    2.2817    2.6441 C   0  0  2  0  0  0  0  0  0  0  0  0
    6.3957    0.8982    3.0980 C   0  0  0  0  0  0  0  0  0  0  0  0
    7.8950    1.0081    3.3527 C   0  0  1  0  0  0  0  0  0  0  0  0
    9.9125    2.1046    2.5904 C   0  0  0  0  0  0  0  0  0  0  0  0
    8.7808   -0.0015    2.6449 C   0  0  0  0  0  0  0  0  0  0  0  0
    8.2174    0.8992    4.8545 C   0  0  0  0  0  0  0  0  0  0  0  0
   10.0668    0.6404    2.1520 C   0  0  0  0  0  0  0  0  0  0  0  0
    8.5127   -1.1876    2.5081 O   0  0  0  0  0  0  0  0  0  0  0  0
  1  2  1  0
  1  3  1  0
  2  4  1  0
  2  5  2  0
  4  6  2  0
  4  7  1  0
  5  8  1  0
  5  9  1  0
  7 10  1  0
  8 11  1  0
  8 12  1  1
  9 13  1  0
 11 14  1  0
 11 15  1  1
 14 16  1  0
 15 17  1  0
 16 18  1  0
 16 19  1  1
 18 20  1  0
 18 21  1  1
 19 22  1  0
 20 23  2  0
  8 10  1  0
 14 13  1  6
 17 18  1  0
 20 22  1  0
M  END
