
     RDKit          3D

 24 26  0  0  0  0  0  0  0  0999 V2000
   11.5310    0.0763    3.3606 Cl  0  0  0  0  0  0  0  0  0  0  0  0
   10.0248    0.9059    3.4082 C   0  0  0  0  0  0  0  0  0  0  0  0
    9.7703    1.9312    2.4998 C   0  0  0  0  0  0  0  0  0  0  0  0
    9.0686    0.5503    4.3580 C   0  0  0  0  0  0  0  0  0  0  0  0
    8.5495    2.6086    2.5432 C   0  0  0  0  0  0  0  0  0  0  0  0
    7.8481    1.2290    4.4029 C   0  0  0  0  0  0  0  0  0  0  0  0
    7.5862    2.2652    3.4991 C   0  0  0  0  0  0  0  0  0  0  0  0
    6.3246    2.9832    3.5543 C   0  0  0  0  0  0  0  0  0  0  0  0
    5.0895    2.3900    3.6772 N   0  0  0  0  0  0  0  0  0  0  0  0
    6.0284    4.3402    3.5257 C   0  0  0  0  0  0  0  0  0  0  0  0
    4.1020    3.3060    3.6897 N   0  0  0  0  0  0  0  0  0  0  0  0
    4.7558    0.9751    3.7324 C   0  0  0  0  0  0  0  0  0  0  0  0
    4.6635    4.5020    3.6090 N   0  0  0  0  0  0  0  0  0  0  0  0
    6.9544    5.4582    3.4208 C   0  0  0  0  0  0  0  0  0  0  0  0
    4.8262    0.4262    5.1363 C   0  0  0  0  0  0  0  0  0  0  0  0
    8.1197    5.4220    3.8023 O   0  0  0  0  0  0  0  0  0  0  0  0
    6.3791    6.5563    2.8454 O   0  0  0  0  0  0  0  0  0  0  0  0
    5.7238   -0.6052    5.4516 C   0  0  0  0  0  0  0  0  0  0  0  0
    3.9881    0.9256    6.1453 C   0  0  0  0  0  0  0  0  0  0  0  0
    6.1391    6.4333    1.4400 C   0  0  0  0  0  0  0  0  0  0  0  0
    5.7920   -1.1133    6.7498 C   0  0  0  0  0  0  0  0  0  0  0  0
    4.0580    0.4149    7.4421 C   0  0  0  0  0  0  0  0  0  0  0  0
    5.1028    7.4671    1.0444 C   0  0  0  0  0  0  0  0  0  0  0  0
    4.9604   -0.6027    7.7441 C   0  0  0  0  0  0  0  0  0  0  0  0
  1  2  1  0
  2  3  4  0
  2  4  4  0
  3  5  4  0
  4  6  4  0
  5  7  4  0
  7  8  1  0
  8  9  4  0
  8 10  4  0
  9 11  4  0
  9 12  1  0
 10 13  4  0
 10 14  1  0
 12 15  1  0
 14 16  2  0
 14 17  1  0
 15 18  4  0
 15 19  4  0
 17 20  1  0
 18 21  4  0
 19 22  4  0
 20 23  1  0
 21 24  4  0
  6  7  4  0
 11 13  4  0
 22 24  4  0
M  END
