
     RDKit          3D

 29 32  0  0  0  0  0  0  0  0999 V2000
    3.9262    8.4635    1.7506 Cl  0  0  0  0  0  0  0  0  0  0  0  0
    4.0504    6.9926    2.6349 C   0  0  0  0  0  0  0  0  0  0  0  0
    5.0419    6.0706    2.3073 C   0  0  0  0  0  0  0  0  0  0  0  0
    3.1587    6.7304    3.6720 C   0  0  0  0  0  0  0  0  0  0  0  0
    5.1386    4.8731    3.0195 C   0  0  0  0  0  0  0  0  0  0  0  0
    3.2579    5.5343    4.3859 C   0  0  0  0  0  0  0  0  0  0  0  0
    4.2427    4.5907    4.0614 C   0  0  0  0  0  0  0  0  0  0  0  0
    4.3353    3.2882    4.8219 C   0  0  0  0  0  0  0  0  0  0  0  0
    5.7677    2.8584    5.1682 C   0  0  0  0  0  0  0  0  0  0  0  0
    6.2072    1.4344    4.7531 C   0  0  2  0  0  0  0  0  0  0  0  0
    5.6115    1.2006    3.4468 O   0  0  0  0  0  0  0  0  0  0  0  0
    5.7157    0.4283    5.6432 O   0  0  0  0  0  0  0  0  0  0  0  0
    7.7306    1.2754    4.5628 C   0  0  0  0  0  0  0  0  0  0  0  0
    4.7585    0.0424    3.5843 C   0  0  0  0  0  0  0  0  0  0  0  0
    4.4822   -0.0028    5.0680 C   0  0  0  0  0  0  0  0  0  0  0  0
    8.3294    2.0471    3.5005 N   0  0  0  0  0  0  0  0  0  0  0  0
    5.5107   -1.1825    3.0449 C   0  0  0  0  0  0  0  0  0  0  0  0
    8.1668    3.3879    3.2978 C   0  0  0  0  0  0  0  0  0  0  0  0
    9.0869    1.5619    2.4712 C   0  0  0  0  0  0  0  0  0  0  0  0
    5.9672   -2.3848    4.3492 S   0  0  0  0  0  0  0  0  0  0  0  0
    8.8119    3.7911    2.2269 N   0  0  0  0  0  0  0  0  0  0  0  0
    9.3852    2.6617    1.7019 C   0  0  0  0  0  0  0  0  0  0  0  0
    7.7439   -2.3622    4.2432 C   0  0  0  0  0  0  0  0  0  0  0  0
    8.3624   -2.8315    3.0822 C   0  0  0  0  0  0  0  0  0  0  0  0
    8.5362   -1.8805    5.2873 C   0  0  0  0  0  0  0  0  0  0  0  0
    9.7573   -2.8347    2.9766 C   0  0  0  0  0  0  0  0  0  0  0  0
    9.9309   -1.8857    5.1752 C   0  0  0  0  0  0  0  0  0  0  0  0
   10.5522   -2.3198    4.0025 C   0  0  0  0  0  0  0  0  0  0  0  0
   11.9439   -2.4405    3.9442 N   0  0  0  0  0  0  0  0  0  0  0  0
  1  2  1  0
  2  3  4  0
  2  4  4  0
  3  5  4  0
  4  6  4  0
  5  7  4  0
  7  8  1  0
  8  9  1  0
 10  9  1  1
 10 11  1  0
 10 12  1  0
 10 13  1  0
 11 14  1  0
 12 15  1  0
 13 16  1  0
 14 17  1  0
 16 18  4  0
 16 19  4  0
 17 20  1  0
 18 21  4  0
 19 22  4  0
 20 23  1  0
 23 24  4  0
 23 25  4  0
 24 26  4  0
 25 27  4  0
 26 28  4  0
 28 29  1  0
  6  7  4  0
 14 15  1  0
 21 22  4  0
 27 28  4  0
M  END
