
     RDKit          3D

 21 24  0  0  0  0  0  0  0  0999 V2000
    3.3320    8.5709    2.0822 O   0  0  0  0  0  0  0  0  0  0  0  0
    3.9257    7.6605    2.6597 C   0  0  0  0  0  0  0  0  0  0  0  0
    5.4103    7.7377    2.9306 C   0  0  0  0  0  0  0  0  0  0  0  0
    3.1813    6.4838    3.2442 C   0  0  0  0  0  0  0  0  0  0  0  0
    6.0761    6.3932    2.6247 C   0  0  2  0  0  0  0  0  0  0  0  0
    3.9143    5.1692    2.9859 C   0  0  0  0  0  0  0  0  0  0  0  0
    5.4184    5.1942    3.3833 C   0  0  1  0  0  0  0  0  0  0  0  0
    7.5905    6.4711    2.8486 C   0  0  0  0  0  0  0  0  0  0  0  0
    6.1348    3.8765    2.9013 C   0  0  1  0  0  0  0  0  0  0  0  0
    5.5234    5.3496    4.9208 C   0  0  0  0  0  0  0  0  0  0  0  0
    8.2802    5.1795    2.4191 C   0  0  0  0  0  0  0  0  0  0  0  0
    7.6834    3.9443    3.1068 C   0  0  2  0  0  0  0  0  0  0  0  0
    5.5273    2.5685    3.4765 C   0  0  0  0  0  0  0  0  0  0  0  0
    8.3046    2.6506    2.5694 C   0  0  2  0  0  0  0  0  0  0  0  0
    6.2652    1.2963    3.0200 C   0  0  0  0  0  0  0  0  0  0  0  0
    7.7731    1.3928    3.2851 C   0  0  1  0  0  0  0  0  0  0  0  0
    9.8206    2.4750    2.6182 C   0  0  0  0  0  0  0  0  0  0  0  0
    8.6223    0.3235    2.5681 C   0  0  1  0  0  0  0  0  0  0  0  0
    8.0312    1.3633    4.8127 C   0  0  0  0  0  0  0  0  0  0  0  0
   10.0258    0.9554    2.4770 C   0  0  0  0  0  0  0  0  0  0  0  0
    8.6379   -0.9327    3.2178 O   0  0  0  0  0  0  0  0  0  0  0  0
  1  2  2  0
  2  3  1  0
  2  4  1  0
  5  3  1  1
  4  6  1  0
  5  7  1  0
  5  8  1  0
  7  9  1  0
  7 10  1  1
  8 11  1  0
  9 12  1  0
  9 13  1  1
 12 14  1  0
 13 15  1  0
 14 16  1  0
 14 17  1  1
 16 18  1  0
 16 19  1  1
 17 20  1  0
 18 21  1  1
  6  7  1  0
 12 11  1  6
 15 16  1  0
 18 20  1  0
M  END
