
     RDKit          3D

 45 51  0  0  0  0  0  0  0  0999 V2000
    4.8398    0.4819    3.5698 S   0  0  0  0  0  0  0  0  0  0  0  0
    4.4300    0.4256    4.9581 O   0  0  0  0  0  0  0  0  0  0  0  0
    5.3156    1.7250    2.9984 O   0  0  0  0  0  0  0  0  0  0  0  0
    6.0628   -0.6433    3.3396 N   0  0  0  0  0  0  0  0  0  0  0  0
    3.4974   -0.1056    2.5501 C   0  0  0  0  0  0  0  0  0  0  0  0
    7.1354   -0.8249    4.2530 C   0  0  0  0  0  0  0  0  0  0  0  0
    2.4432   -0.9149    3.0716 C   0  0  0  0  0  0  0  0  0  0  0  0
    3.5320    0.2770    1.2017 C   0  0  0  0  0  0  0  0  0  0  0  0
    6.9060   -1.6501    5.3523 C   0  0  0  0  0  0  0  0  0  0  0  0
    8.4186   -0.3295    4.0328 C   0  0  0  0  0  0  0  0  0  0  0  0
    1.3872   -1.2784    2.1893 C   0  0  0  0  0  0  0  0  0  0  0  0
    2.3654   -1.3937    4.4038 C   0  0  0  0  0  0  0  0  0  0  0  0
    2.5224   -0.1245    0.3453 C   0  0  0  0  0  0  0  0  0  0  0  0
    7.9471   -1.9616    6.2300 C   0  0  0  0  0  0  0  0  0  0  0  0
    9.4626   -0.6496    4.9153 C   0  0  0  0  0  0  0  0  0  0  0  0
    0.2803   -2.0444    2.6609 C   0  0  0  0  0  0  0  0  0  0  0  0
    1.4606   -0.8758    0.8387 C   0  0  0  0  0  0  0  0  0  0  0  0
    1.2875   -2.1502    4.8615 C   0  0  0  0  0  0  0  0  0  0  0  0
    9.2333   -1.4443    6.0392 C   0  0  0  0  0  0  0  0  0  0  0  0
   -0.7754   -2.3799    1.7663 N   0  0  0  0  0  0  0  0  0  0  0  0
    0.2485   -2.4640    3.9987 C   0  0  0  0  0  0  0  0  0  0  0  0
   10.5393   -2.0748    7.0630 S   0  0  0  0  0  0  0  0  0  0  0  0
   -1.7033   -1.2659    1.5566 C   0  0  0  0  0  0  0  0  0  0  0  0
   -1.4181   -3.6444    2.1381 C   0  0  0  0  0  0  0  0  0  0  0  0
   10.7578   -3.8817    6.7512 C   0  0  0  0  0  0  0  0  0  0  0  0
   11.4389   -4.4255    5.4535 C   0  0  1  0  0  0  0  0  0  0  0  0
    9.5904   -4.7689    7.2049 C   0  0  0  0  0  0  0  0  0  0  0  0
   10.4410   -4.7837    4.3163 C   0  0  0  0  0  0  0  0  0  0  0  0
   12.7287   -3.7702    4.8694 C   0  0  0  0  0  0  0  0  0  0  0  0
    8.6313   -5.1968    6.1224 C   0  0  0  0  0  0  0  0  0  0  0  0
    9.2317   -5.6762    4.8047 C   0  0  1  0  0  0  0  0  0  0  0  0
   10.0784   -3.5076    3.5491 C   0  0  0  0  0  0  0  0  0  0  0  0
   12.5649   -2.7462    3.7262 C   0  0  1  0  0  0  0  0  0  0  0  0
   13.6921   -3.1154    5.8766 C   0  0  0  0  0  0  0  0  0  0  0  0
    7.3155   -5.2790    6.3984 C   0  0  0  0  0  0  0  0  0  0  0  0
    8.1127   -5.7373    3.7242 C   0  0  0  0  0  0  0  0  0  0  0  0
    9.7598   -7.1216    5.0316 C   0  0  0  0  0  0  0  0  0  0  0  0
   11.2915   -2.8634    2.8851 C   0  0  0  0  0  0  0  0  0  0  0  0
   12.7198   -1.4392    4.4819 C   0  0  0  0  0  0  0  0  0  0  0  0
   13.7799   -2.7924    2.7664 C   0  0  0  0  0  0  0  0  0  0  0  0
   13.5833   -1.5997    5.7092 C   0  0  0  0  0  0  0  0  0  0  0  0
    6.3525   -5.9219    5.4699 C   0  0  0  0  0  0  0  0  0  0  0  0
    6.8757   -6.5010    4.1792 C   0  0  0  0  0  0  0  0  0  0  0  0
   12.2836   -0.3597    4.1006 O   0  0  0  0  0  0  0  0  0  0  0  0
    5.1777   -6.0412    5.8112 O   0  0  0  0  0  0  0  0  0  0  0  0
  1  2  2  0
  1  3  2  0
  1  4  1  0
  1  5  1  0
  4  6  1  0
  5  7  4  0
  5  8  4  0
  6  9  4  0
  6 10  4  0
  7 11  4  0
  7 12  4  0
  8 13  4  0
  9 14  4  0
 10 15  4  0
 11 16  4  0
 11 17  4  0
 12 18  4  0
 14 19  4  0
 16 20  1  0
 16 21  4  0
 19 22  1  0
 20 23  1  0
 20 24  1  0
 25 22  1  0
 26 25  1  1
 25 27  1  0
 26 28  1  0
 26 29  1  0
 27 30  1  0
 28 31  1  0
 28 32  1  0
 29 33  1  0
 29 34  1  0
 30 35  2  0
 31 36  1  0
 31 37  1  1
 32 38  1  0
 33 39  1  0
 33 40  1  6
 34 41  1  0
 35 42  1  0
 36 43  1  0
 39 44  2  0
 42 45  2  0
 13 17  4  0
 15 19  4  0
 18 21  4  0
 30 31  1  0
 33 38  1  0
 39 41  1  0
 42 43  1  0
M  END
