
     RDKit          3D

 29 31  0  0  0  0  0  0  0  0999 V2000
   13.6192   -5.2388    2.3228 F   0  0  0  0  0  0  0  0  0  0  0  0
   12.8303   -4.2363    2.7303 C   0  0  0  0  0  0  0  0  0  0  0  0
   13.2746   -3.3740    3.7235 C   0  0  0  0  0  0  0  0  0  0  0  0
   11.5774   -4.0720    2.1508 C   0  0  0  0  0  0  0  0  0  0  0  0
   12.4497   -2.3286    4.1449 C   0  0  0  0  0  0  0  0  0  0  0  0
   10.7482   -3.0268    2.5709 C   0  0  0  0  0  0  0  0  0  0  0  0
   11.1790   -2.1466    3.5736 C   0  0  0  0  0  0  0  0  0  0  0  0
   10.3447   -1.0056    4.0657 C   0  0  0  0  0  0  0  0  0  0  0  0
   10.8949    0.0410    4.4080 O   0  0  0  0  0  0  0  0  0  0  0  0
    8.8353   -1.1311    4.1251 C   0  0  0  0  0  0  0  0  0  0  0  0
    8.2383   -0.3852    5.3164 C   0  0  0  0  0  0  0  0  0  0  0  0
    6.9921    0.4292    4.9319 C   0  0  0  0  0  0  0  0  0  0  0  0
    7.2089    1.2621    3.7350 N   0  0  0  0  0  0  0  0  0  0  0  0
    8.4104    2.1070    3.8576 C   0  0  0  0  0  0  0  0  0  0  0  0
    6.0008    2.0352    3.3955 C   0  0  0  0  0  0  0  0  0  0  0  0
    8.3584    3.3004    2.9021 C   0  0  0  0  0  0  0  0  0  0  0  0
    6.0321    3.4720    3.9109 C   0  0  0  0  0  0  0  0  0  0  0  0
    7.2219    4.2609    3.3140 C   0  0  1  0  0  0  0  0  0  0  0  0
    7.7617    5.0654    4.3861 O   0  0  0  0  0  0  0  0  0  0  0  0
    6.7609    5.2490    2.2349 C   0  0  0  0  0  0  0  0  0  0  0  0
    5.4632    5.8013    2.3262 C   0  0  0  0  0  0  0  0  0  0  0  0
    7.5561    5.6478    1.1515 C   0  0  0  0  0  0  0  0  0  0  0  0
    4.9730    6.7183    1.3806 C   0  0  0  0  0  0  0  0  0  0  0  0
    7.0776    6.5522    0.1980 C   0  0  0  0  0  0  0  0  0  0  0  0
    5.7945    7.0819    0.3085 C   0  0  0  0  0  0  0  0  0  0  0  0
    3.5737    7.2711    1.4959 C   0  0  0  0  0  0  0  0  0  0  0  0
    2.6100    6.3728    1.1480 F   0  0  0  0  0  0  0  0  0  0  0  0
    3.2636    7.6740    2.7606 F   0  0  0  0  0  0  0  0  0  0  0  0
    3.3785    8.3579    0.6993 F   0  0  0  0  0  0  0  0  0  0  0  0
  1  2  1  0
  2  3  4  0
  2  4  4  0
  3  5  4  0
  4  6  4  0
  5  7  4  0
  7  8  1  0
  8  9  2  0
  8 10  1  0
 10 11  1  0
 11 12  1  0
 12 13  1  0
 13 14  1  0
 13 15  1  0
 14 16  1  0
 15 17  1  0
 16 18  1  0
 18 19  1  1
 18 20  1  0
 20 21  4  0
 20 22  4  0
 21 23  4  0
 22 24  4  0
 23 25  4  0
 23 26  1  0
 26 27  1  0
 26 28  1  0
 26 29  1  0
  6  7  4  0
 17 18  1  0
 24 25  4  0
M  END
