
     RDKit          3D

 25 27  0  0  0  0  0  0  0  0999 V2000
   10.1755   -0.9185    1.1860 Br  0  0  0  0  0  0  0  0  0  0  0  0
    8.9495    0.2380    2.0420 C   0  0  0  0  0  0  0  0  0  0  0  0
    7.5930   -0.0756    2.0507 C   0  0  0  0  0  0  0  0  0  0  0  0
    9.4103    1.3965    2.6627 C   0  0  0  0  0  0  0  0  0  0  0  0
    6.6879    0.7797    2.6831 C   0  0  0  0  0  0  0  0  0  0  0  0
    8.5045    2.2514    3.2946 C   0  0  0  0  0  0  0  0  0  0  0  0
    7.1307    1.9565    3.3074 C   0  0  0  0  0  0  0  0  0  0  0  0
    6.1245    2.8805    3.9855 C   0  0  1  0  0  0  0  0  0  0  0  0
    5.8971    2.3670    5.3201 O   0  0  0  0  0  0  0  0  0  0  0  0
    6.6503    4.3407    4.1100 C   0  0  1  0  0  0  0  0  0  0  0  0
    5.9367    1.0110    5.4470 C   0  0  0  0  0  0  0  0  0  0  0  0
    6.5926    5.1392    2.8118 C   0  0  0  0  0  0  0  0  0  0  0  0
    6.0373    5.1140    5.3020 C   0  0  0  0  0  0  0  0  0  0  0  0
    6.9157    0.3500    5.7574 O   0  0  0  0  0  0  0  0  0  0  0  0
    4.5951    0.4316    5.1182 C   0  0  0  0  0  0  0  0  0  0  0  0
    7.7639    5.3099    2.0543 C   0  0  0  0  0  0  0  0  0  0  0  0
    5.4044    5.7135    2.3378 C   0  0  0  0  0  0  0  0  0  0  0  0
    4.5960    5.2144    5.3337 N   0  0  0  0  0  0  0  0  0  0  0  0
    7.7441    6.0281    0.8571 C   0  0  0  0  0  0  0  0  0  0  0  0
    5.3874    6.4345    1.1419 C   0  0  0  0  0  0  0  0  0  0  0  0
    3.8440    4.1908    5.7681 N   0  0  0  0  0  0  0  0  0  0  0  0
    3.8153    6.2316    4.8687 C   0  0  0  0  0  0  0  0  0  0  0  0
    6.5555    6.5903    0.4010 C   0  0  0  0  0  0  0  0  0  0  0  0
    2.5727    4.5533    5.6640 N   0  0  0  0  0  0  0  0  0  0  0  0
    2.5342    5.7996    5.1104 C   0  0  0  0  0  0  0  0  0  0  0  0
  1  2  1  0
  2  3  4  0
  2  4  4  0
  3  5  4  0
  4  6  4  0
  5  7  4  0
  7  8  1  0
  8  9  1  1
  8 10  1  0
  9 11  1  0
 10 12  1  0
 10 13  1  1
 11 14  2  0
 11 15  1  0
 12 16  4  0
 12 17  4  0
 13 18  1  0
 16 19  4  0
 17 20  4  0
 18 21  4  0
 18 22  4  0
 19 23  4  0
 21 24  4  0
 22 25  4  0
  6  7  4  0
 20 23  4  0
 24 25  4  0
M  END
