
     RDKit          3D

 37 40  0  0  0  0  0  0  0  0999 V2000
    2.6067   -5.0462    4.4274 F   0  0  0  0  0  0  0  0  0  0  0  0
    3.8995   -4.7084    4.5080 C   0  0  0  0  0  0  0  0  0  0  0  0
    4.8345   -5.3933    3.7428 C   0  0  0  0  0  0  0  0  0  0  0  0
    4.2878   -3.6857    5.3647 C   0  0  0  0  0  0  0  0  0  0  0  0
    6.1854   -5.0488    3.8331 C   0  0  0  0  0  0  0  0  0  0  0  0
    5.6377   -3.3396    5.4530 C   0  0  0  0  0  0  0  0  0  0  0  0
    6.5981   -4.0113    4.6784 C   0  0  0  0  0  0  0  0  0  0  0  0
    7.9881   -3.6737    4.7786 N   0  0  0  0  0  0  0  0  0  0  0  0
    8.7782   -4.2746    5.7891 C   0  0  0  0  0  0  0  0  0  0  0  0
    8.3855   -2.2847    4.4090 C   0  0  0  0  0  0  0  0  0  0  0  0
   10.0083   -4.2040    5.8316 O   0  0  0  0  0  0  0  0  0  0  0  0
    8.1102   -5.0834    6.8472 C   0  0  0  0  0  0  0  0  0  0  0  0
    8.4896   -1.3608    5.6405 C   0  0  0  0  0  0  0  0  0  0  0  0
    7.5866   -1.6174    3.2745 C   0  0  0  0  0  0  0  0  0  0  0  0
    7.8408   -6.4319    6.5891 C   0  0  0  0  0  0  0  0  0  0  0  0
    7.6998   -4.5131    8.0575 C   0  0  0  0  0  0  0  0  0  0  0  0
    8.5152    0.1065    5.2208 C   0  0  0  0  0  0  0  0  0  0  0  0
    6.6102   -0.5793    3.8212 C   0  0  0  0  0  0  0  0  0  0  0  0
    7.2054   -7.2125    7.5564 C   0  0  0  0  0  0  0  0  0  0  0  0
    7.0617   -5.3006    9.0224 C   0  0  0  0  0  0  0  0  0  0  0  0
    7.3134    0.5320    4.4858 N   0  0  0  0  0  0  0  0  0  0  0  0
    6.8207   -6.6557    8.7796 C   0  0  0  0  0  0  0  0  0  0  0  0
    6.3691    1.2995    5.3183 C   0  0  0  0  0  0  0  0  0  0  0  0
    6.2119   -7.5286    9.6368 O   0  0  0  0  0  0  0  0  0  0  0  0
    5.1019    1.7768    4.5732 C   0  0  0  0  0  0  0  0  0  0  0  0
    4.8752   -7.9052    9.3325 C   0  0  0  0  0  0  0  0  0  0  0  0
    4.2659    0.6492    4.2648 O   0  0  0  0  0  0  0  0  0  0  0  0
    5.4100    2.5512    3.2794 C   0  0  0  0  0  0  0  0  0  0  0  0
    6.5984    3.3362    3.4154 O   0  0  0  0  0  0  0  0  0  0  0  0
    6.7106    4.5498    2.8055 C   0  0  0  0  0  0  0  0  0  0  0  0
    5.6063    5.3836    3.0019 C   0  0  0  0  0  0  0  0  0  0  0  0
    7.7783    5.0191    2.0429 C   0  0  0  0  0  0  0  0  0  0  0  0
    5.5671    6.6631    2.4430 C   0  0  0  0  0  0  0  0  0  0  0  0
    7.7406    6.3047    1.4818 C   0  0  0  0  0  0  0  0  0  0  0  0
    6.6371    7.1339    1.6830 C   0  0  0  0  0  0  0  0  0  0  0  0
    6.4819    8.3997    1.1920 O   0  0  0  0  0  0  0  0  0  0  0  0
    5.5411    8.5686    0.1401 C   0  0  0  0  0  0  0  0  0  0  0  0
  1  2  1  0
  2  3  4  0
  2  4  4  0
  3  5  4  0
  4  6  4  0
  5  7  4  0
  7  8  1  0
  8  9  1  0
  8 10  1  0
  9 11  2  0
  9 12  1  0
 10 13  1  0
 10 14  1  0
 12 15  4  0
 12 16  4  0
 13 17  1  0
 14 18  1  0
 15 19  4  0
 16 20  4  0
 17 21  1  0
 19 22  4  0
 21 23  1  0
 22 24  1  0
 23 25  1  0
 24 26  1  0
 25 27  1  0
 25 28  1  0
 28 29  1  0
 29 30  1  0
 30 31  4  0
 30 32  4  0
 31 33  4  0
 32 34  4  0
 33 35  4  0
 35 36  1  0
 36 37  1  0
  6  7  4  0
 18 21  1  0
 20 22  4  0
 34 35  4  0
M  END
