
     RDKit          3D

 26 30  0  0  0  0  0  0  0  0999 V2000
    2.8307    5.7922    4.6120 O   0  0  0  0  0  0  0  0  0  0  0  0
    4.0053    6.1122    4.7484 C   0  0  0  0  0  0  0  0  0  0  0  0
    4.7045    6.0348    5.9148 O   0  0  0  0  0  0  0  0  0  0  0  0
    4.8819    6.6653    3.6389 C   0  0  0  0  0  0  0  0  0  0  0  0
    4.5720    4.7868    6.5966 C   0  0  0  0  0  0  0  0  0  0  0  0
    4.0861    6.7920    2.3383 C   0  0  0  0  0  0  0  0  0  0  0  0
    6.1850    5.8539    3.4746 C   0  0  0  0  0  0  0  0  0  0  0  0
    2.9656    7.6593    2.5156 O   0  0  0  0  0  0  0  0  0  0  0  0
    4.9616    7.4110    1.2546 C   0  0  0  0  0  0  0  0  0  0  0  0
    7.0260    6.2729    2.2443 C   0  0  2  0  0  0  0  0  0  0  0  0
    6.0261    4.3255    3.4402 C   0  0  0  0  0  0  0  0  0  0  0  0
    6.1824    6.5520    0.9849 C   0  0  0  0  0  0  0  0  0  0  0  0
    8.0914    5.2084    1.8740 C   0  0  0  0  0  0  0  0  0  0  0  0
    7.4083    3.6820    3.6839 C   0  0  2  0  0  0  0  0  0  0  0  0
    8.5328    4.3842    3.0027 N   0  0  0  0  0  0  0  0  0  0  0  0
    7.4302    2.2057    3.4500 C   0  0  0  0  0  0  0  0  0  0  0  0
    9.6880    3.5356    2.5873 C   0  0  0  0  0  0  0  0  0  0  0  0
    6.3733    1.3406    3.4070 N   0  0  0  0  0  0  0  0  0  0  0  0
    8.5854    1.4693    3.3101 C   0  0  0  0  0  0  0  0  0  0  0  0
    9.8854    2.1828    3.3134 C   0  0  0  0  0  0  0  0  0  0  0  0
    6.8333    0.0515    3.2243 C   0  0  0  0  0  0  0  0  0  0  0  0
    8.2294    0.1072    3.1616 C   0  0  0  0  0  0  0  0  0  0  0  0
    6.1226   -1.1498    3.1136 C   0  0  0  0  0  0  0  0  0  0  0  0
    8.9480   -1.0895    2.9785 C   0  0  0  0  0  0  0  0  0  0  0  0
    6.8590   -2.3246    2.9324 C   0  0  0  0  0  0  0  0  0  0  0  0
    8.2504   -2.2978    2.8654 C   0  0  0  0  0  0  0  0  0  0  0  0
  1  2  2  0
  2  3  1  0
  4  2  1  0
  3  5  1  0
  4  6  1  0
  4  7  1  0
  6  8  1  0
  6  9  1  0
  7 10  1  0
  7 11  1  0
  9 12  1  0
 10 13  1  6
 14 11  1  6
 13 15  1  0
 14 16  1  0
 15 17  1  0
 16 18  4  0
 16 19  4  0
 17 20  1  0
 18 21  4  0
 19 22  4  0
 21 23  4  0
 22 24  4  0
 23 25  4  0
 24 26  4  0
 10 12  1  0
 14 15  1  0
 19 20  1  0
 21 22  4  0
 25 26  4  0
M  END
