
     RDKit          3D

 22 24  0  0  0  0  0  0  0  0999 V2000
    2.1178    5.3966    5.4923 Br  0  0  0  0  0  0  0  0  0  0  0  0
    3.7221    4.5415    4.9771 C   0  0  0  0  0  0  0  0  0  0  0  0
    4.5196    5.1024    3.9872 C   0  0  0  0  0  0  0  0  0  0  0  0
    4.0975    3.3480    5.5859 C   0  0  0  0  0  0  0  0  0  0  0  0
    5.7036    4.4626    3.6115 C   0  0  0  0  0  0  0  0  0  0  0  0
    5.2850    2.7108    5.2063 C   0  0  0  0  0  0  0  0  0  0  0  0
    6.1155    3.2582    4.2179 C   0  0  0  0  0  0  0  0  0  0  0  0
    7.4282    2.6460    3.7488 C   0  0  0  0  0  0  0  0  0  0  0  0
    7.7090    1.5266    4.5969 O   0  0  0  0  0  0  0  0  0  0  0  0
    8.7040    3.5214    3.5223 C   0  0  0  0  0  0  0  0  0  0  0  0
    8.5711    4.8087    2.7001 C   0  0  0  0  0  0  0  0  0  0  0  0
    9.8777    2.6264    3.0503 C   0  0  0  0  0  0  0  0  0  0  0  0
    9.0159    6.0627    3.1432 C   0  0  0  0  0  0  0  0  0  0  0  0
    8.0185    4.7376    1.4067 C   0  0  0  0  0  0  0  0  0  0  0  0
    9.5166    1.6604    2.0323 N   0  0  0  0  0  0  0  0  0  0  0  0
    8.8690    7.2056    2.3505 C   0  0  0  0  0  0  0  0  0  0  0  0
    7.8714    5.8785    0.6136 C   0  0  0  0  0  0  0  0  0  0  0  0
    8.4643    0.8448    2.2150 N   0  0  0  0  0  0  0  0  0  0  0  0
   10.0841    1.4723    0.8082 C   0  0  0  0  0  0  0  0  0  0  0  0
    8.2900    7.1154    1.0895 C   0  0  0  0  0  0  0  0  0  0  0  0
    8.3509    0.0940    1.1275 N   0  0  0  0  0  0  0  0  0  0  0  0
    9.3308    0.4672    0.2520 C   0  0  0  0  0  0  0  0  0  0  0  0
  1  2  1  0
  2  3  4  0
  2  4  4  0
  3  5  4  0
  4  6  4  0
  5  7  4  0
  7  8  1  0
  8  9  1  0
  8 10  1  0
 10 11  1  0
 10 12  1  0
 11 13  4  0
 11 14  4  0
 12 15  1  0
 13 16  4  0
 14 17  4  0
 15 18  4  0
 15 19  4  0
 16 20  4  0
 18 21  4  0
 19 22  4  0
  6  7  4  0
 17 20  4  0
 21 22  4  0
M  END
