
     RDKit          2D

 22 26  0  0  0  0  0  0  0  0999 V2000
    2.3310    7.0567    1.0069 O   0  0  0  0  0  0  0  0  0  0  0  0
    3.1576    6.6245    1.7127 C   0  0  0  0  0  0  0  0  0  0  0  0
    4.4616    6.9996    1.2877 C   0  0  0  0  0  0  0  0  0  0  0  0
    2.9674    5.8756    2.8984 C   0  0  0  0  0  0  0  0  0  0  0  0
    5.0982    7.5141    1.3570 O   0  0  0  0  0  0  0  0  0  0  0  0
    5.6752    6.4221    1.8756 C   0  0  0  0  0  0  0  0  0  0  0  0
    4.1099    5.0825    3.3062 C   0  0  0  0  0  0  0  0  0  0  0  0
    5.4295    5.6215    3.0927 C   0  0  0  0  0  0  0  0  0  0  0  0
    7.0695    6.6862    1.7097 C   0  0  0  0  0  0  0  0  0  0  0  0
    6.3464    4.4781    3.1956 C   0  0  0  0  0  0  0  0  0  0  0  0
    5.8945    6.5510    4.2469 C   0  0  0  0  0  0  0  0  0  0  0  0
    7.9402    5.8749    1.8547 C   0  0  0  0  0  0  0  0  0  0  0  0
    7.6816    4.9048    2.9461 C   0  0  0  0  0  0  0  0  0  0  0  0
    6.1745    3.2980    3.8422 C   0  0  0  0  0  0  0  0  0  0  0  0
    8.5971    3.9637    2.8441 C   0  0  0  0  0  0  0  0  0  0  0  0
    7.2297    2.2593    3.6394 C   0  0  0  0  0  0  0  0  0  0  0  0
    8.5413    2.7469    3.7095 C   0  0  0  0  0  0  0  0  0  0  0  0
   10.0965    4.4302    2.9463 C   0  0  0  0  0  0  0  0  0  0  0  0
    9.7104    2.0185    3.1499 C   0  0  0  0  0  0  0  0  0  0  0  0
    8.8952    3.2211    5.0254 C   0  0  0  0  0  0  0  0  0  0  0  0
   10.8073    3.1736    2.9183 C   0  0  0  0  0  0  0  0  0  0  0  0
    9.8069    0.7971    3.1288 O   0  0  0  0  0  0  0  0  0  0  0  0
  1  2  2  0
  2  3  1  0
  2  4  1  0
  3  5  1  1
  3  6  1  0
  4  7  1  0
  6  8  1  0
  6  9  1  6
  8 10  1  0
  8 11  1  1
  9 12  1  0
 10 13  1  0
 10 14  1  1
 13 15  1  0
 14 16  1  0
 15 17  1  0
 15 18  1  1
 17 19  1  0
 17 20  1  1
 18 21  1  0
 19 22  2  0
  6  5  1  0
  7  8  1  0
 13 12  1  6
 16 17  1  0
 19 21  1  0
M  END
