
     RDKit          3D

 32 36  0  0  0  0  0  0  0  0999 V2000
    3.9308    6.6975    2.9008 F   0  0  0  0  0  0  0  0  0  0  0  0
    4.2379    5.5405    3.4994 C   0  0  0  0  0  0  0  0  0  0  0  0
    3.5596    5.1665    4.6513 C   0  0  0  0  0  0  0  0  0  0  0  0
    5.2261    4.7298    2.9588 C   0  0  0  0  0  0  0  0  0  0  0  0
    3.8718    3.9549    5.2699 C   0  0  0  0  0  0  0  0  0  0  0  0
    5.5371    3.5148    3.5753 C   0  0  0  0  0  0  0  0  0  0  0  0
    4.8567    3.1019    4.7344 C   0  0  0  0  0  0  0  0  0  0  0  0
    5.1434    1.8030    5.4624 C   0  0  0  0  0  0  0  0  0  0  0  0
    4.9062    0.5960    4.6853 N   0  0  0  0  0  0  0  0  0  0  0  0
    5.7234    0.0708    3.7010 C   0  0  0  0  0  0  0  0  0  0  0  0
    3.9085   -0.3226    4.9494 C   0  0  0  0  0  0  0  0  0  0  0  0
    5.3165   -1.1322    3.3577 N   0  0  0  0  0  0  0  0  0  0  0  0
    6.8384    0.7065    3.2374 N   0  0  0  0  0  0  0  0  0  0  0  0
    4.1970   -1.3864    4.1028 C   0  0  0  0  0  0  0  0  0  0  0  0
    2.8188   -0.3307    5.8299 C   0  0  0  0  0  0  0  0  0  0  0  0
    7.7045    1.2704    4.2863 C   0  0  0  0  0  0  0  0  0  0  0  0
    7.5322    0.1261    2.0731 C   0  0  0  0  0  0  0  0  0  0  0  0
    3.3734   -2.5220    4.1142 C   0  0  0  0  0  0  0  0  0  0  0  0
    2.0046   -1.4697    5.8244 C   0  0  0  0  0  0  0  0  0  0  0  0
    8.8043    2.1200    3.6612 C   0  0  0  0  0  0  0  0  0  0  0  0
    9.0316   -0.0402    2.3195 C   0  0  0  0  0  0  0  0  0  0  0  0
    2.2751   -2.5500    4.9811 C   0  0  0  0  0  0  0  0  0  0  0  0
    9.6719    1.3170    2.6661 C   0  0  0  0  0  0  0  0  0  0  0  0
   11.0875    1.2695    3.1067 N   0  0  0  0  0  0  0  0  0  0  0  0
   11.3077    0.4231    4.2934 C   0  0  0  0  0  0  0  0  0  0  0  0
   11.6824    2.5895    3.3252 C   0  0  0  0  0  0  0  0  0  0  0  0
   12.1336   -0.8169    4.0180 C   0  0  0  0  0  0  0  0  0  0  0  0
   13.3446   -1.0312    4.6916 C   0  0  0  0  0  0  0  0  0  0  0  0
   11.7174   -1.7525    3.0577 C   0  0  0  0  0  0  0  0  0  0  0  0
   14.1158   -2.1630    4.4192 C   0  0  0  0  0  0  0  0  0  0  0  0
   12.4875   -2.8846    2.7914 C   0  0  0  0  0  0  0  0  0  0  0  0
   13.6886   -3.0872    3.4681 C   0  0  0  0  0  0  0  0  0  0  0  0
  1  2  1  0
  2  3  4  0
  2  4  4  0
  3  5  4  0
  4  6  4  0
  5  7  4  0
  7  8  1  0
  8  9  1  0
  9 10  4  0
  9 11  4  0
 10 12  4  0
 10 13  1  0
 11 14  4  0
 11 15  4  0
 13 16  1  0
 13 17  1  0
 14 18  4  0
 15 19  4  0
 16 20  1  0
 17 21  1  0
 18 22  4  0
 20 23  1  0
 23 24  1  0
 24 25  1  0
 24 26  1  0
 25 27  1  0
 27 28  4  0
 27 29  4  0
 28 30  4  0
 29 31  4  0
 30 32  4  0
  6  7  4  0
 12 14  4  0
 19 22  4  0
 21 23  1  0
 31 32  4  0
M  END
