
     RDKit          3D

 22 24  0  0  0  0  0  0  0  0999 V2000
    9.4686   -0.4639    0.0292 O   0  0  0  0  0  0  0  0  0  0  0  0
    8.9593    0.1327    0.9693 C   0  0  0  0  0  0  0  0  0  0  0  0
    9.5408    1.3853    1.4916 C   0  0  0  0  0  0  0  0  0  0  0  0
    7.7323   -0.3632    1.6186 C   0  0  0  0  0  0  0  0  0  0  0  0
    9.0016    2.0377    2.5370 C   0  0  0  0  0  0  0  0  0  0  0  0
    7.1945    0.2831    2.6616 C   0  0  0  0  0  0  0  0  0  0  0  0
    7.7576    1.5526    3.2935 C   0  0  2  0  0  0  0  0  0  0  0  0
    9.5822    3.3537    2.9884 C   0  0  0  0  0  0  0  0  0  0  0  0
    6.6838    2.7037    3.2513 C   0  0  2  0  0  0  0  0  0  0  0  0
    8.1606    1.1711    4.7356 C   0  0  0  0  0  0  0  0  0  0  0  0
    8.5215    4.4459    2.9176 C   0  0  0  0  0  0  0  0  0  0  0  0
    7.2598    4.0718    3.7120 C   0  0  1  0  0  0  0  0  0  0  0  0
    5.3954    2.3985    4.0457 C   0  0  0  0  0  0  0  0  0  0  0  0
    6.2134    5.1932    3.5769 C   0  0  0  0  0  0  0  0  0  0  0  0
    4.3573    3.5152    3.9106 C   0  0  0  0  0  0  0  0  0  0  0  0
    4.8863    4.9079    4.3172 C   0  0  2  0  0  0  0  0  0  0  0  0
    3.8590    5.9971    3.9079 C   0  0  0  0  0  0  0  0  0  0  0  0
    5.0979    4.9683    5.8447 C   0  0  0  0  0  0  0  0  0  0  0  0
    3.5060    5.8850    2.5181 O   0  0  0  0  0  0  0  0  0  0  0  0
    3.6901    6.9895    1.7458 C   0  0  0  0  0  0  0  0  0  0  0  0
    4.2385    8.0254    2.0924 O   0  0  0  0  0  0  0  0  0  0  0  0
    3.1041    6.7601    0.3861 C   0  0  0  0  0  0  0  0  0  0  0  0
  1  2  2  0
  2  3  1  0
  2  4  1  0
  3  5  2  0
  4  6  2  0
  5  7  1  0
  5  8  1  0
  7  9  1  0
  7 10  1  1
  8 11  1  0
  9 12  1  0
  9 13  1  1
 12 14  1  6
 13 15  1  0
 14 16  1  0
 16 17  1  0
 16 18  1  1
 17 19  1  0
 19 20  1  0
 20 21  2  0
 20 22  1  0
  6  7  1  0
 11 12  1  0
 15 16  1  0
M  END
