
     RDKit          3D

 29 33  0  0  0  0  0  0  0  0999 V2000
   10.6590    1.3272   -0.1034 O   0  0  0  0  0  0  0  0  0  0  0  0
   10.0161    1.0072    0.8938 C   0  0  0  0  0  0  0  0  0  0  0  0
    9.1229    2.0006    1.5295 C   0  0  0  0  0  0  0  0  0  0  0  0
   10.1500   -0.3523    1.5275 C   0  0  0  0  0  0  0  0  0  0  0  0
    8.4238    1.7158    2.6419 C   0  0  0  0  0  0  0  0  0  0  0  0
    8.8987   -0.7243    2.3146 C   0  0  0  0  0  0  0  0  0  0  0  0
    7.5700    2.7365    3.2150 C   0  0  0  0  0  0  0  0  0  0  0  0
    8.4601    0.3596    3.3402 C   0  0  2  0  0  0  0  0  0  0  0  0
    6.6742    2.5416    4.2042 C   0  0  0  0  0  0  0  0  0  0  0  0
    7.0152    0.0424    3.8725 C   0  0  2  0  0  0  0  0  0  0  0  0
    9.4969    0.4166    4.4877 C   0  0  0  0  0  0  0  0  0  0  0  0
    6.4691    1.1659    4.8499 C   0  0  2  0  0  0  0  0  0  0  0  0
    5.9718    3.7737    4.7439 C   0  0  0  0  0  0  0  0  0  0  0  0
    6.8745   -1.3928    4.4398 C   0  0  0  0  0  0  0  0  0  0  0  0
    5.0309    0.7459    5.2619 C   0  0  1  0  0  0  0  0  0  0  0  0
    6.5115    5.1041    4.1865 C   0  0  0  0  0  0  0  0  0  0  0  0
    5.4688   -1.7007    4.9580 C   0  0  0  0  0  0  0  0  0  0  0  0
    5.0319   -0.6456    5.9601 C   0  0  2  0  0  0  0  0  0  0  0  0
    4.1764    1.5776    6.2249 C   0  0  0  0  0  0  0  0  0  0  0  0
    5.5399    5.8359    3.2899 C   0  0  0  0  0  0  0  0  0  0  0  0
    3.5749   -0.7188    6.3717 C   0  0  0  0  0  0  0  0  0  0  0  0
    5.8519   -0.7436    7.2634 C   0  0  0  0  0  0  0  0  0  0  0  0
    2.9882    0.6613    6.5518 C   0  0  0  0  0  0  0  0  0  0  0  0
    5.8119    5.9920    1.9236 C   0  0  0  0  0  0  0  0  0  0  0  0
    4.3631    6.3870    3.8154 C   0  0  0  0  0  0  0  0  0  0  0  0
    2.9540   -1.7555    6.5636 O   0  0  0  0  0  0  0  0  0  0  0  0
    4.9257    6.6883    1.1005 C   0  0  0  0  0  0  0  0  0  0  0  0
    3.4778    7.0821    2.9901 C   0  0  0  0  0  0  0  0  0  0  0  0
    3.7593    7.2330    1.6336 C   0  0  0  0  0  0  0  0  0  0  0  0
  1  2  2  0
  2  3  1  0
  2  4  1  0
  3  5  2  0
  4  6  1  0
  5  7  1  0
  5  8  1  0
  7  9  2  0
  8 10  1  0
  8 11  1  1
 12  9  1  6
  9 13  1  0
 10 14  1  1
 12 15  1  0
 13 16  1  0
 14 17  1  0
 15 18  1  0
 15 19  1  1
 16 20  1  0
 18 21  1  0
 18 22  1  1
 19 23  1  0
 20 24  4  0
 20 25  4  0
 21 26  2  0
 24 27  4  0
 25 28  4  0
 27 29  4  0
  6  8  1  0
 10 12  1  0
 17 18  1  0
 21 23  1  0
 28 29  4  0
M  END
