
     RDKit          3D

 26 29  0  0  0  0  0  0  0  0999 V2000
    4.7541    6.8810    3.9710 O   0  0  0  0  0  0  0  0  0  0  0  0
    5.1607    6.0765    3.1393 C   0  0  0  0  0  0  0  0  0  0  0  0
    5.6901    6.4447    1.9345 O   0  0  0  0  0  0  0  0  0  0  0  0
    5.1282    4.6314    3.3292 C   0  0  0  0  0  0  0  0  0  0  0  0
    4.7263    6.7753    0.9300 C   0  0  0  0  0  0  0  0  0  0  0  0
    3.9395    3.9437    3.4362 N   0  0  0  0  0  0  0  0  0  0  0  0
    6.1802    3.7260    3.4259 C   0  0  0  0  0  0  0  0  0  0  0  0
    4.9486    8.2208    0.5289 C   0  0  0  0  0  0  0  0  0  0  0  0
    4.2076    2.6579    3.5994 N   0  0  0  0  0  0  0  0  0  0  0  0
    5.5461    2.5198    3.6176 N   0  0  0  0  0  0  0  0  0  0  0  0
    7.6232    3.8983    3.3750 C   0  0  0  0  0  0  0  0  0  0  0  0
    6.1269    1.1953    3.7741 C   0  0  0  0  0  0  0  0  0  0  0  0
    8.4602    2.7778    3.2829 C   0  0  0  0  0  0  0  0  0  0  0  0
    8.1785    5.1949    3.4306 C   0  0  0  0  0  0  0  0  0  0  0  0
    5.7886    0.5803    5.1097 C   0  0  0  0  0  0  0  0  0  0  0  0
    9.8212    2.9934    3.2430 C   0  0  0  0  0  0  0  0  0  0  0  0
    9.5638    5.3808    3.3874 C   0  0  0  0  0  0  0  0  0  0  0  0
    4.5227    0.7696    5.6854 C   0  0  0  0  0  0  0  0  0  0  0  0
    6.7334   -0.1991    5.7940 C   0  0  0  0  0  0  0  0  0  0  0  0
   10.7759    2.0293    3.1513 O   0  0  0  0  0  0  0  0  0  0  0  0
   10.3574    4.2585    3.2929 C   0  0  0  0  0  0  0  0  0  0  0  0
    4.2151    0.2035    6.9231 C   0  0  0  0  0  0  0  0  0  0  0  0
    6.4234   -0.7624    7.0327 C   0  0  0  0  0  0  0  0  0  0  0  0
   11.9749    2.8313    3.1612 C   0  0  0  0  0  0  0  0  0  0  0  0
   11.7158    4.2488    3.2392 O   0  0  0  0  0  0  0  0  0  0  0  0
    5.1655   -0.5607    7.5968 C   0  0  0  0  0  0  0  0  0  0  0  0
  1  2  2  0
  2  3  1  0
  2  4  1  0
  3  5  1  0
  4  6  4  0
  4  7  4  0
  5  8  1  0
  6  9  4  0
  7 10  4  0
  7 11  1  0
 10 12  1  0
 11 13  4  0
 11 14  4  0
 12 15  1  0
 13 16  4  0
 14 17  4  0
 15 18  4  0
 15 19  4  0
 16 20  1  0
 16 21  4  0
 18 22  4  0
 19 23  4  0
 20 24  1  0
 21 25  1  0
 22 26  4  0
  9 10  4  0
 17 21  4  0
 23 26  4  0
 24 25  1  0
M  END
