
     RDKit          3D

 21 24  0  0  0  0  0  0  0  0999 V2000
    4.6575    7.4571    1.1411 Br  0  0  0  0  0  0  0  0  0  0  0  0
    5.0485    7.0398    2.9939 C   0  0  0  0  0  0  0  0  0  0  0  0
    4.1267    5.9066    3.4209 C   0  0  0  0  0  0  0  0  0  0  0  0
    6.4541    6.4381    3.1440 C   0  0  0  0  0  0  0  0  0  0  0  0
    2.9037    5.9656    3.4511 O   0  0  0  0  0  0  0  0  0  0  0  0
    4.9309    4.6994    3.8750 C   0  0  2  0  0  0  0  0  0  0  0  0
    6.2022    4.9346    3.0213 C   0  0  2  0  0  0  0  0  0  0  0  0
    4.3631    3.3245    3.5309 C   0  0  0  0  0  0  0  0  0  0  0  0
    5.1001    4.8516    5.4006 C   0  0  0  0  0  0  0  0  0  0  0  0
    7.2959    3.9227    3.3810 C   0  0  1  0  0  0  0  0  0  0  0  0
    5.4106    2.2136    3.7546 C   0  0  0  0  0  0  0  0  0  0  0  0
    6.7472    2.4991    3.0247 C   0  0  2  0  0  0  0  0  0  0  0  0
    8.6722    4.2050    2.7492 C   0  0  0  0  0  0  0  0  0  0  0  0
    7.8556    1.4062    3.1831 C   0  0  2  0  0  0  0  0  0  0  0  0
    9.1278    3.1651    1.7292 C   0  0  0  0  0  0  0  0  0  0  0  0
    8.9557    1.7262    2.1663 C   0  0  0  0  0  0  0  0  0  0  0  0
    7.2877   -0.0102    2.8824 C   0  0  0  0  0  0  0  0  0  0  0  0
    8.4575    1.4067    4.6094 C   0  0  0  0  0  0  0  0  0  0  0  0
    9.6638    0.7594    1.5515 C   0  0  0  0  0  0  0  0  0  0  0  0
    8.3797   -1.0765    2.7681 C   0  0  0  0  0  0  0  0  0  0  0  0
    9.4478   -0.7122    1.7400 C   0  0  0  0  0  0  0  0  0  0  0  0
  2  1  1  0
  2  3  1  0
  2  4  1  0
  3  5  2  0
  3  6  1  0
  7  4  1  1
  6  8  1  0
  6  9  1  1
  7 10  1  0
  8 11  1  0
 10 12  1  0
 10 13  1  6
 12 14  1  0
 13 15  1  0
 14 16  1  0
 14 17  1  0
 14 18  1  1
 16 19  2  0
 17 20  1  0
 19 21  1  0
  6  7  1  0
 12 11  1  1
 15 16  1  0
 20 21  1  0
M  END
