
     RDKit          3D

 25 27  0  0  0  0  0  0  0  0999 V2000
    7.9880   -3.4451    1.6677 F   0  0  0  0  0  0  0  0  0  0  0  0
    9.2113   -2.8851    1.8847 C   0  0  0  0  0  0  0  0  0  0  0  0
   10.0387   -3.4221    0.9464 F   0  0  0  0  0  0  0  0  0  0  0  0
    9.6342   -3.3736    3.0833 F   0  0  0  0  0  0  0  0  0  0  0  0
    9.1799   -1.3842    1.8281 C   0  0  0  0  0  0  0  0  0  0  0  0
    8.6420   -0.6359    2.8825 C   0  0  0  0  0  0  0  0  0  0  0  0
    9.7175   -0.7014    0.7388 C   0  0  0  0  0  0  0  0  0  0  0  0
    8.6298    0.7584    2.8247 C   0  0  0  0  0  0  0  0  0  0  0  0
    9.6825    0.6773    0.7540 C   0  0  0  0  0  0  0  0  0  0  0  0
    9.1560    1.4042    1.7627 N   0  0  0  0  0  0  0  0  0  0  0  0
    8.0811    1.4876    3.8971 N   0  0  0  0  0  0  0  0  0  0  0  0
    6.7898    0.9113    4.3496 C   0  0  0  0  0  0  0  0  0  0  0  0
    8.0443    2.9524    3.6908 C   0  0  0  0  0  0  0  0  0  0  0  0
    5.9229    1.9678    5.0710 C   0  0  0  0  0  0  0  0  0  0  0  0
    6.6446    3.4253    3.2451 C   0  0  0  0  0  0  0  0  0  0  0  0
    5.5606    3.1217    4.2130 N   0  0  0  0  0  0  0  0  0  0  0  0
    5.2010    4.3032    5.0039 C   0  0  0  0  0  0  0  0  0  0  0  0
    4.4589    5.3117    4.1992 C   0  0  0  0  0  0  0  0  0  0  0  0
    4.3899    5.2737    2.8296 N   0  0  0  0  0  0  0  0  0  0  0  0
    3.7157    6.4205    4.5554 C   0  0  0  0  0  0  0  0  0  0  0  0
    3.6303    6.3353    2.4093 C   0  0  0  0  0  0  0  0  0  0  0  0
    3.2133    7.0418    3.4356 N   0  0  0  0  0  0  0  0  0  0  0  0
    3.4449    6.9604    5.9064 C   0  0  0  0  0  0  0  0  0  0  0  0
    3.3474    6.6035    0.9731 C   0  0  0  0  0  0  0  0  0  0  0  0
    4.5340    7.2616    0.2881 C   0  0  0  0  0  0  0  0  0  0  0  0
  1  2  1  0
  2  3  1  0
  2  4  1  0
  2  5  1  0
  5  6  4  0
  5  7  4  0
  6  8  4  0
  7  9  4  0
  8 10  4  0
  8 11  1  0
 11 12  1  0
 11 13  1  0
 12 14  1  0
 13 15  1  0
 14 16  1  0
 16 17  1  0
 17 18  1  0
 18 19  4  0
 18 20  4  0
 19 21  4  0
 20 22  4  0
 20 23  1  0
 21 24  1  0
 24 25  1  0
  9 10  4  0
 15 16  1  0
 21 22  4  0
M  END
