
     RDKit          3D

 29 32  0  0  0  0  0  0  0  0999 V2000
    5.0828    7.0490    0.2830 O   0  0  0  0  0  0  0  0  0  0  0  0
    5.7773    6.4212    1.0758 C   0  0  0  0  0  0  0  0  0  0  0  0
    5.1221    5.6037    2.1242 C   0  0  0  0  0  0  0  0  0  0  0  0
    7.2734    6.3262    0.9344 C   0  0  0  0  0  0  0  0  0  0  0  0
    5.8369    4.8506    2.9841 C   0  0  0  0  0  0  0  0  0  0  0  0
    7.9114    6.1314    2.2980 C   0  0  0  0  0  0  0  0  0  0  0  0
    7.3719    4.9011    3.0888 C   0  0  2  0  0  0  0  0  0  0  0  0
    5.1271    3.7450    3.7461 C   0  0  2  0  0  0  0  0  0  0  0  0
    7.8791    3.5236    2.5339 C   0  0  2  0  0  0  0  0  0  0  0  0
    7.8535    5.1417    4.5448 C   0  0  0  0  0  0  0  0  0  0  0  0
    5.3306    3.9508    5.1460 O   0  0  0  0  0  0  0  0  0  0  0  0
    5.6808    2.3960    3.2624 C   0  0  0  0  0  0  0  0  0  0  0  0
    7.2200    2.3146    3.2985 C   0  0  0  0  0  0  0  0  0  0  0  0
    9.4235    3.3851    2.4674 C   0  0  0  0  0  0  0  0  0  0  0  0
    4.3253    3.5443    5.9630 C   0  0  0  0  0  0  0  0  0  0  0  0
    7.7263    1.0186    2.6581 C   0  0  1  0  0  0  0  0  0  0  0  0
    9.8994    2.0057    1.9735 C   0  0  0  0  0  0  0  0  0  0  0  0
    4.0083    2.3822    6.1713 O   0  0  0  0  0  0  0  0  0  0  0  0
    3.6226    4.7353    6.5625 C   0  0  0  0  0  0  0  0  0  0  0  0
    9.2572    0.8778    2.7764 C   0  0  2  0  0  0  0  0  0  0  0  0
    7.1890   -0.3275    3.1342 C   0  0  0  0  0  0  0  0  0  0  0  0
    2.4497    5.2018    5.7002 C   0  0  0  0  0  0  0  0  0  0  0  0
    9.3841   -0.5227    2.2030 C   0  0  0  0  0  0  0  0  0  0  0  0
    9.8247    0.8216    4.2072 C   0  0  0  0  0  0  0  0  0  0  0  0
    8.1174   -1.3311    2.4313 C   0  0  0  0  0  0  0  0  0  0  0  0
    2.9059    5.9357    4.4352 C   0  0  0  0  0  0  0  0  0  0  0  0
   10.3761   -0.9563    1.6313 O   0  0  0  0  0  0  0  0  0  0  0  0
    3.2645    7.3919    4.7322 C   0  0  0  0  0  0  0  0  0  0  0  0
    3.4252    8.1933    3.4496 C   0  0  0  0  0  0  0  0  0  0  0  0
  1  2  2  0
  2  3  1  0
  2  4  1  0
  3  5  2  0
  4  6  1  0
  5  7  1  0
  5  8  1  0
  7  9  1  0
  7 10  1  1
  8 11  1  1
  8 12  1  0
  9 13  1  0
  9 14  1  1
 11 15  1  0
 13 16  1  0
 14 17  1  0
 15 18  2  0
 15 19  1  0
 16 20  1  0
 16 21  1  1
 19 22  1  0
 20 23  1  0
 20 24  1  1
 21 25  1  0
 22 26  1  0
 23 27  2  0
 26 28  1  0
 28 29  1  0
  6  7  1  0
 13 12  1  0
 17 20  1  0
 23 25  1  0
M  END
