
     RDKit          3D

 21 23  0  0  0  0  0  0  0  0999 V2000
   11.3561    2.7342    2.7853 Br  0  0  0  0  0  0  0  0  0  0  0  0
    9.5416    3.1249    3.1419 C   0  0  0  0  0  0  0  0  0  0  0  0
    9.1320    4.4512    3.2670 C   0  0  0  0  0  0  0  0  0  0  0  0
    8.6243    2.0859    3.2788 C   0  0  0  0  0  0  0  0  0  0  0  0
    7.7909    4.7411    3.5318 C   0  0  0  0  0  0  0  0  0  0  0  0
    7.2842    2.3769    3.5432 C   0  0  0  0  0  0  0  0  0  0  0  0
    6.8570    3.7058    3.6726 C   0  0  0  0  0  0  0  0  0  0  0  0
    5.4362    4.0076    3.9403 C   0  0  0  0  0  0  0  0  0  0  0  0
    4.8112    5.0969    3.4452 C   0  0  0  0  0  0  0  0  0  0  0  0
    4.7007    3.0075    4.8062 C   0  0  0  0  0  0  0  0  0  0  0  0
    5.3957    6.1367    2.5885 C   0  0  0  0  0  0  0  0  0  0  0  0
    4.6349    1.6897    4.1957 N   0  0  0  0  0  0  0  0  0  0  0  0
    6.0660    5.8193    1.4016 C   0  0  0  0  0  0  0  0  0  0  0  0
    5.2482    7.4802    2.9523 C   0  0  0  0  0  0  0  0  0  0  0  0
    4.3970    1.5583    2.8771 N   0  0  0  0  0  0  0  0  0  0  0  0
    4.8386    0.4761    4.7845 C   0  0  0  0  0  0  0  0  0  0  0  0
    6.5995    6.8312    0.6007 C   0  0  0  0  0  0  0  0  0  0  0  0
    5.7812    8.4913    2.1502 C   0  0  0  0  0  0  0  0  0  0  0  0
    4.4215    0.2619    2.5962 N   0  0  0  0  0  0  0  0  0  0  0  0
    4.6883   -0.4163    3.7515 C   0  0  0  0  0  0  0  0  0  0  0  0
    6.4581    8.1662    0.9759 C   0  0  0  0  0  0  0  0  0  0  0  0
  1  2  1  0
  2  3  4  0
  2  4  4  0
  3  5  4  0
  4  6  4  0
  5  7  4  0
  7  8  1  0
  8  9  2  0
  8 10  1  0
  9 11  1  0
 10 12  1  0
 11 13  4  0
 11 14  4  0
 12 15  4  0
 12 16  4  0
 13 17  4  0
 14 18  4  0
 15 19  4  0
 16 20  4  0
 17 21  4  0
  6  7  4  0
 18 21  4  0
 19 20  4  0
M  END
