
     RDKit          3D

 24 27  0  0  0  0  0  0  0  0999 V2000
    3.5336    7.5494    2.3070 O   0  0  0  0  0  0  0  0  0  0  0  0
    4.0356    6.5839    2.8765 C   0  0  0  0  0  0  0  0  0  0  0  0
    5.5117    6.4759    2.9635 C   0  0  0  0  0  0  0  0  0  0  0  0
    3.2117    5.5425    3.5777 C   0  0  0  0  0  0  0  0  0  0  0  0
    6.1327    5.4191    3.5248 C   0  0  0  0  0  0  0  0  0  0  0  0
    3.8926    4.1902    3.4618 C   0  0  0  0  0  0  0  0  0  0  0  0
    5.3548    4.1714    4.0052 C   0  0  1  0  0  0  0  0  0  0  0  0
    7.6540    5.3859    3.7572 C   0  0  0  0  0  0  0  0  0  0  0  0
    6.0523    2.8702    3.4521 C   0  0  1  0  0  0  0  0  0  0  0  0
    5.3040    4.1921    5.5501 C   0  0  0  0  0  0  0  0  0  0  0  0
    8.2431    4.1073    3.1332 C   0  0  0  0  0  0  0  0  0  0  0  0
    8.4402    6.6343    3.2815 C   0  0  0  0  0  0  0  0  0  0  0  0
    7.5883    2.8483    3.7144 C   0  0  2  0  0  0  0  0  0  0  0  0
    5.3672    1.5455    3.8968 C   0  0  0  0  0  0  0  0  0  0  0  0
    8.3166    6.8627    1.8296 C   0  0  0  0  0  0  0  0  0  0  0  0
    8.1650    1.5716    3.0941 C   0  0  2  0  0  0  0  0  0  0  0  0
    6.0753    0.2755    3.3896 C   0  0  0  0  0  0  0  0  0  0  0  0
    8.2245    7.0540    0.6477 C   0  0  0  0  0  0  0  0  0  0  0  0
    7.5604    0.3048    3.7328 C   0  0  1  0  0  0  0  0  0  0  0  0
    9.6691    1.3204    3.1218 C   0  0  0  0  0  0  0  0  0  0  0  0
    8.4366   -0.7274    3.0467 C   0  0  0  0  0  0  0  0  0  0  0  0
    7.7891    0.1383    5.2465 C   0  0  0  0  0  0  0  0  0  0  0  0
    9.7790   -0.1372    2.6497 C   0  0  0  0  0  0  0  0  0  0  0  0
    8.1204   -1.8944    2.8582 O   0  0  0  0  0  0  0  0  0  0  0  0
  1  2  2  0
  2  3  1  0
  2  4  1  0
  3  5  2  0
  4  6  1  0
  5  7  1  0
  5  8  1  0
  7  9  1  0
  7 10  1  1
  8 11  1  0
  8 12  1  0
  9 13  1  0
  9 14  1  1
 12 15  1  0
 13 16  1  0
 14 17  1  0
 15 18  3  0
 16 19  1  0
 16 20  1  1
 19 21  1  0
 19 22  1  1
 20 23  1  0
 21 24  2  0
  6  7  1  0
 13 11  1  6
 17 19  1  0
 21 23  1  0
M  END
