
     RDKit          3D

 34 38  0  0  0  0  0  0  0  0999 V2000
    8.7566    3.1784    2.6684 O   0  0  0  0  0  0  0  0  0  0  0  0
    7.6209    3.9380    2.7788 C   0  0  0  0  0  0  0  0  0  0  0  0
    9.9761    3.8162    3.0316 C   0  0  0  0  0  0  0  0  0  0  0  0
    6.5894    3.4164    3.5765 C   0  0  0  0  0  0  0  0  0  0  0  0
    7.4378    5.1616    2.1281 C   0  0  0  0  0  0  0  0  0  0  0  0
    5.4036    4.1601    3.7364 C   0  0  0  0  0  0  0  0  0  0  0  0
    6.7208    2.0889    4.2884 C   0  0  0  0  0  0  0  0  0  0  0  0
    6.2517    5.8840    2.2906 C   0  0  0  0  0  0  0  0  0  0  0  0
    5.2221    5.3981    3.1036 C   0  0  0  0  0  0  0  0  0  0  0  0
    5.6611    1.8372    5.2719 N   0  0  0  0  0  0  0  0  0  0  0  0
    3.9573    6.2152    3.2935 C   0  0  0  0  0  0  0  0  0  0  0  0
    5.1566    0.4485    5.2928 C   0  0  0  0  0  0  0  0  0  0  0  0
    3.0671    6.1864    2.0486 C   0  0  0  0  0  0  0  0  0  0  0  0
    3.1813    5.7553    4.5299 C   0  0  0  0  0  0  0  0  0  0  0  0
    6.2804   -0.5484    5.7905 C   0  0  0  0  0  0  0  0  0  0  0  0
    3.9190    0.2663    6.2217 C   0  0  0  0  0  0  0  0  0  0  0  0
    5.7167   -1.5140    6.8154 N   0  0  0  0  0  0  0  0  0  0  0  0
    7.1684   -1.2914    4.7001 C   0  0  0  0  0  0  0  0  0  0  0  0
    3.3890   -1.1581    5.9887 C   0  0  0  0  0  0  0  0  0  0  0  0
    4.3339    0.3655    7.6992 C   0  0  0  0  0  0  0  0  0  0  0  0
    4.4936   -2.1687    6.3101 C   0  0  0  0  0  0  0  0  0  0  0  0
    5.3521   -0.7368    8.0229 C   0  0  0  0  0  0  0  0  0  0  0  0
    6.5834   -1.4928    3.3009 C   0  0  0  0  0  0  0  0  0  0  0  0
    8.6415   -0.8501    4.6412 C   0  0  0  0  0  0  0  0  0  0  0  0
    6.2342   -0.4122    2.4775 C   0  0  0  0  0  0  0  0  0  0  0  0
    6.4341   -2.7902    2.7801 C   0  0  0  0  0  0  0  0  0  0  0  0
    9.0899    0.2023    3.8332 C   0  0  0  0  0  0  0  0  0  0  0  0
    9.5979   -1.5507    5.4007 C   0  0  0  0  0  0  0  0  0  0  0  0
    5.7195   -0.6189    1.1958 C   0  0  0  0  0  0  0  0  0  0  0  0
    5.9193   -2.9987    1.4984 C   0  0  0  0  0  0  0  0  0  0  0  0
   10.4400    0.5626    3.8035 C   0  0  0  0  0  0  0  0  0  0  0  0
   10.9475   -1.1928    5.3701 C   0  0  0  0  0  0  0  0  0  0  0  0
    5.5579   -1.9119    0.7075 C   0  0  0  0  0  0  0  0  0  0  0  0
   11.3681   -0.1325    4.5734 C   0  0  0  0  0  0  0  0  0  0  0  0
  1  2  1  0
  1  3  1  0
  2  4  4  0
  2  5  4  0
  4  6  4  0
  4  7  1  0
  5  8  4  0
  6  9  4  0
  7 10  1  0
  9 11  1  0
 12 10  1  0
 11 13  1  0
 11 14  1  0
 12 15  1  0
 12 16  1  0
 15 17  1  0
 15 18  1  0
 16 19  1  0
 16 20  1  0
 17 21  1  0
 17 22  1  0
 18 23  1  0
 18 24  1  0
 23 25  4  0
 23 26  4  0
 24 27  4  0
 24 28  4  0
 25 29  4  0
 26 30  4  0
 27 31  4  0
 28 32  4  0
 29 33  4  0
 31 34  4  0
  8  9  4  0
 19 21  1  0
 20 22  1  0
 30 33  4  0
 32 34  4  0
M  END
