
     RDKit          3D

 23 26  0  0  0  0  0  0  0  0999 V2000
    3.4444    7.7257    1.5524 O   0  0  0  0  0  0  0  0  0  0  0  0
    4.0157    6.8328    2.1653 C   0  0  0  0  0  0  0  0  0  0  0  0
    5.4740    6.8715    2.3976 C   0  0  0  0  0  0  0  0  0  0  0  0
    3.2796    5.6733    2.6901 C   0  0  0  0  0  0  0  0  0  0  0  0
    6.1345    5.9155    3.0800 C   0  0  0  0  0  0  0  0  0  0  0  0
    3.9118    4.7227    3.3882 C   0  0  0  0  0  0  0  0  0  0  0  0
    5.4005    4.7132    3.7228 C   0  0  1  0  0  0  0  0  0  0  0  0
    7.6539    5.9308    3.2714 C   0  0  0  0  0  0  0  0  0  0  0  0
    6.0611    3.3876    3.1908 C   0  0  1  0  0  0  0  0  0  0  0  0
    5.4775    4.8337    5.2629 C   0  0  0  0  0  0  0  0  0  0  0  0
    8.2506    4.6162    2.7393 C   0  0  0  0  0  0  0  0  0  0  0  0
    8.4404    7.1527    2.7303 C   0  0  0  0  0  0  0  0  0  0  0  0
    7.6132    3.3838    3.3946 C   0  0  2  0  0  0  0  0  0  0  0  0
    5.4125    2.0779    3.7311 C   0  0  0  0  0  0  0  0  0  0  0  0
    8.4358    7.3387    1.2167 C   0  0  0  0  0  0  0  0  0  0  0  0
    8.1733    2.0826    2.8117 C   0  0  2  0  0  0  0  0  0  0  0  0
    6.1108    0.7894    3.2576 C   0  0  0  0  0  0  0  0  0  0  0  0
    7.6082    0.8445    3.5357 C   0  0  1  0  0  0  0  0  0  0  0  0
    9.6793    1.8434    2.7855 C   0  0  0  0  0  0  0  0  0  0  0  0
    8.4634   -0.2140    2.8628 C   0  0  0  0  0  0  0  0  0  0  0  0
    7.9019    0.7521    5.0444 C   0  0  0  0  0  0  0  0  0  0  0  0
    9.7814    0.3658    2.3782 C   0  0  0  0  0  0  0  0  0  0  0  0
    8.1507   -1.3912    2.7466 O   0  0  0  0  0  0  0  0  0  0  0  0
  1  2  2  0
  2  3  1  0
  2  4  1  0
  3  5  2  0
  4  6  2  0
  5  7  1  0
  5  8  1  0
  7  9  1  0
  7 10  1  1
  8 11  1  0
  8 12  1  0
  9 13  1  0
  9 14  1  1
 12 15  1  0
 13 16  1  0
 14 17  1  0
 16 18  1  0
 16 19  1  1
 18 20  1  0
 18 21  1  1
 19 22  1  0
 20 23  2  0
  6  7  1  0
 13 11  1  6
 17 18  1  0
 20 22  1  0
M  END
