
     RDKit          3D

 36 39  0  0  0  0  0  0  0  0999 V2000
    2.6887   -2.3459    0.8740 Cl  0  0  0  0  0  0  0  0  0  0  0  0
    3.2900   -1.2715    2.0754 C   0  0  0  0  0  0  0  0  0  0  0  0
    3.7978   -0.0285    1.6988 C   0  0  0  0  0  0  0  0  0  0  0  0
    3.2732   -1.6540    3.4174 C   0  0  0  0  0  0  0  0  0  0  0  0
    4.2871    0.8419    2.6745 C   0  0  0  0  0  0  0  0  0  0  0  0
    3.7612   -0.7840    4.3967 C   0  0  0  0  0  0  0  0  0  0  0  0
    4.2510    0.4744    4.0271 C   0  0  0  0  0  0  0  0  0  0  0  0
    4.8033    1.4246    5.0297 C   0  0  0  0  0  0  0  0  0  0  0  0
    4.1404    1.5642    6.0543 O   0  0  0  0  0  0  0  0  0  0  0  0
    5.9691    2.1575    4.7369 N   0  0  0  0  0  0  0  0  0  0  0  0
    5.9291    3.4337    4.0822 C   0  0  0  0  0  0  0  0  0  0  0  0
    7.2616    1.4185    4.6250 C   0  0  0  0  0  0  0  0  0  0  0  0
    7.1062    4.1283    3.7617 C   0  0  0  0  0  0  0  0  0  0  0  0
    4.6928    4.0196    3.7693 C   0  0  0  0  0  0  0  0  0  0  0  0
    7.4047    0.2353    5.5999 C   0  0  0  0  0  0  0  0  0  0  0  0
    7.6048    1.0693    3.1696 C   0  0  0  0  0  0  0  0  0  0  0  0
    7.0474    5.3705    3.1242 C   0  0  0  0  0  0  0  0  0  0  0  0
    4.6352    5.2619    3.1322 C   0  0  0  0  0  0  0  0  0  0  0  0
    7.2712   -1.1665    4.9926 C   0  0  0  0  0  0  0  0  0  0  0  0
    8.4412   -0.2015    3.0648 C   0  0  0  0  0  0  0  0  0  0  0  0
    5.8132    5.9246    2.8140 C   0  0  0  0  0  0  0  0  0  0  0  0
    7.6430   -1.2938    3.5852 N   0  0  0  0  0  0  0  0  0  0  0  0
    5.7573    7.1149    2.2023 F   0  0  0  0  0  0  0  0  0  0  0  0
    8.0555   -2.6515    3.2209 C   0  0  0  0  0  0  0  0  0  0  0  0
    8.5106   -3.5620    4.3944 C   0  0  0  0  0  0  0  0  0  0  0  0
    7.3982   -4.1882    5.0461 O   0  0  0  0  0  0  0  0  0  0  0  0
    9.3787   -2.8294    5.4282 C   0  0  0  0  0  0  0  0  0  0  0  0
   10.3555   -2.0327    4.7511 O   0  0  0  0  0  0  0  0  0  0  0  0
   11.6047   -2.5841    4.6711 C   0  0  0  0  0  0  0  0  0  0  0  0
   12.0755   -3.1792    5.8412 C   0  0  0  0  0  0  0  0  0  0  0  0
   12.4205   -2.5572    3.5419 C   0  0  0  0  0  0  0  0  0  0  0  0
   13.3391   -3.7788    5.8799 C   0  0  0  0  0  0  0  0  0  0  0  0
   13.6847   -3.1556    3.5813 C   0  0  0  0  0  0  0  0  0  0  0  0
   14.1492   -3.7738    4.7454 C   0  0  0  0  0  0  0  0  0  0  0  0
   15.3911   -4.3388    4.6398 O   0  0  0  0  0  0  0  0  0  0  0  0
   16.3658   -3.9159    5.5857 C   0  0  0  0  0  0  0  0  0  0  0  0
  1  2  1  0
  2  3  4  0
  2  4  4  0
  3  5  4  0
  4  6  4  0
  5  7  4  0
  7  8  1  0
  8  9  2  0
  8 10  1  0
 10 11  1  0
 10 12  1  0
 11 13  4  0
 11 14  4  0
 12 15  1  0
 12 16  1  0
 13 17  4  0
 14 18  4  0
 15 19  1  0
 16 20  1  0
 17 21  4  0
 19 22  1  0
 21 23  1  0
 22 24  1  0
 24 25  1  0
 25 26  1  0
 25 27  1  0
 27 28  1  0
 28 29  1  0
 29 30  4  0
 29 31  4  0
 30 32  4  0
 31 33  4  0
 32 34  4  0
 34 35  1  0
 35 36  1  0
  6  7  4  0
 18 21  4  0
 20 22  1  0
 33 34  4  0
M  END
