
     RDKit          3D

 24 27  0  0  0  0  0  0  0  0999 V2000
    3.5044    7.5365    2.3063 O   0  0  0  0  0  0  0  0  0  0  0  0
    4.0190    6.5818    2.8827 C   0  0  0  0  0  0  0  0  0  0  0  0
    5.4959    6.4874    2.9678 C   0  0  0  0  0  0  0  0  0  0  0  0
    3.2072    5.5356    3.5910 C   0  0  0  0  0  0  0  0  0  0  0  0
    6.1278    5.4351    3.5253 C   0  0  0  0  0  0  0  0  0  0  0  0
    3.8972    4.1883    3.4700 C   0  0  0  0  0  0  0  0  0  0  0  0
    5.3620    4.1802    4.0063 C   0  0  1  0  0  0  0  0  0  0  0  0
    7.6494    5.4124    3.7545 C   0  0  1  0  0  0  0  0  0  0  0  0
    6.0683    2.8862    3.4472 C   0  0  1  0  0  0  0  0  0  0  0  0
    5.3177    4.1970    5.5515 C   0  0  0  0  0  0  0  0  0  0  0  0
    8.2488    4.1412    3.1293 C   0  0  0  0  0  0  0  0  0  0  0  0
    8.4702    6.6355    3.2708 C   0  0  0  0  0  0  0  0  0  0  0  0
    7.6054    2.8749    3.7063 C   0  0  2  0  0  0  0  0  0  0  0  0
    5.3944    1.5549    3.8888 C   0  0  0  0  0  0  0  0  0  0  0  0
    8.3195    6.8728    1.8237 C   0  0  0  0  0  0  0  0  0  0  0  0
    8.1902    1.6052    3.0799 C   0  0  2  0  0  0  0  0  0  0  0  0
    6.1109    0.2922    3.3751 C   0  0  0  0  0  0  0  0  0  0  0  0
    8.2009    7.0678    0.6447 C   0  0  0  0  0  0  0  0  0  0  0  0
    7.5966    0.3313    3.7150 C   0  0  1  0  0  0  0  0  0  0  0  0
    9.6961    1.3654    3.1035 C   0  0  0  0  0  0  0  0  0  0  0  0
    8.4790   -0.6916    3.0228 C   0  0  0  0  0  0  0  0  0  0  0  0
    7.8299    0.1604    5.2275 C   0  0  0  0  0  0  0  0  0  0  0  0
    9.8160   -0.0895    2.6252 C   0  0  0  0  0  0  0  0  0  0  0  0
    8.1715   -1.8601    2.8302 O   0  0  0  0  0  0  0  0  0  0  0  0
  1  2  2  0
  2  3  1  0
  2  4  1  0
  3  5  2  0
  4  6  1  0
  5  7  1  0
  5  8  1  0
  7  9  1  0
  7 10  1  1
  8 11  1  0
  8 12  1  6
  9 13  1  0
  9 14  1  1
 12 15  1  0
 13 16  1  0
 14 17  1  0
 15 18  3  0
 16 19  1  0
 16 20  1  1
 19 21  1  0
 19 22  1  1
 20 23  1  0
 21 24  2  0
  6  7  1  0
 13 11  1  6
 17 19  1  0
 21 23  1  0
M  END
