
     RDKit          3D

 26 30  0  0  0  0  0  0  0  0999 V2000
    5.6067   -0.1602    5.9253 O   0  0  0  0  0  0  0  0  0  0  0  0
    5.9100    0.1292    4.7777 C   0  0  0  0  0  0  0  0  0  0  0  0
    5.1153   -0.0148    3.6883 O   0  0  0  0  0  0  0  0  0  0  0  0
    7.2293    0.6619    4.3676 C   0  0  0  0  0  0  0  0  0  0  0  0
    4.8538   -1.3725    3.3342 C   0  0  0  0  0  0  0  0  0  0  0  0
    8.3109   -0.0532    4.7176 C   0  0  0  0  0  0  0  0  0  0  0  0
    7.3726    1.9187    3.5340 C   0  0  2  0  0  0  0  0  0  0  0  0
    9.5972    0.2718    4.3378 N   0  0  0  0  0  0  0  0  0  0  0  0
    8.8416    2.4220    3.4921 C   0  0  1  0  0  0  0  0  0  0  0  0
    6.4717    3.0920    3.9921 C   0  0  0  0  0  0  0  0  0  0  0  0
    9.8300    1.2566    3.2764 C   0  0  1  0  0  0  0  0  0  0  0  0
    8.9755    3.5403    2.4407 C   0  0  0  0  0  0  0  0  0  0  0  0
    7.0522    4.4740    3.6218 C   0  0  0  0  0  0  0  0  0  0  0  0
   11.2896    1.6991    3.3315 C   0  0  0  0  0  0  0  0  0  0  0  0
    7.7598    4.3605    2.3259 N   0  0  0  0  0  0  0  0  0  0  0  0
    5.9823    5.5201    3.5396 C   0  0  0  0  0  0  0  0  0  0  0  0
    8.0401    5.6684    1.6933 C   0  0  0  0  0  0  0  0  0  0  0  0
    5.0192    5.7597    4.4809 N   0  0  0  0  0  0  0  0  0  0  0  0
    5.8308    6.4502    2.5317 C   0  0  0  0  0  0  0  0  0  0  0  0
    6.7500    6.4597    1.3615 C   0  0  0  0  0  0  0  0  0  0  0  0
    4.2311    6.8210    4.0864 C   0  0  0  0  0  0  0  0  0  0  0  0
    4.7207    7.2722    2.8575 C   0  0  0  0  0  0  0  0  0  0  0  0
    3.1318    7.4107    4.7217 C   0  0  0  0  0  0  0  0  0  0  0  0
    4.0819    8.3609    2.2330 C   0  0  0  0  0  0  0  0  0  0  0  0
    2.5152    8.4904    4.0818 C   0  0  0  0  0  0  0  0  0  0  0  0
    2.9807    8.9599    2.8556 C   0  0  0  0  0  0  0  0  0  0  0  0
  1  2  2  0
  2  3  1  0
  2  4  1  0
  3  5  1  0
  4  6  2  0
  4  7  1  0
  6  8  1  0
  7  9  1  0
  7 10  1  1
  8 11  1  0
  9 12  1  6
 13 10  1  0
 11 14  1  1
 12 15  1  0
 13 16  1  0
 15 17  1  0
 16 18  4  0
 16 19  4  0
 17 20  1  0
 18 21  4  0
 19 22  4  0
 21 23  4  0
 22 24  4  0
 23 25  4  0
 24 26  4  0
  9 11  1  0
 13 15  1  0
 19 20  1  0
 21 22  4  0
 25 26  4  0
M  END
