
     RDKit          3D

 24 27  0  0  0  0  0  0  0  0999 V2000
    5.6790   -0.5977    3.3095 O   0  0  0  0  0  0  0  0  0  0  0  0
    6.5937    0.1919    3.1171 C   0  0  0  0  0  0  0  0  0  0  0  0
    6.8088    1.4760    3.8973 C   0  0  1  0  0  0  0  0  0  0  0  0
    7.6792   -0.0081    2.0734 C   0  0  0  0  0  0  0  0  0  0  0  0
    7.5671    2.2665    2.8123 C   0  0  2  0  0  0  0  0  0  0  0  0
    5.5580    2.2611    4.2727 C   0  0  0  0  0  0  0  0  0  0  0  0
    7.6232    1.0956    5.1486 C   0  0  0  0  0  0  0  0  0  0  0  0
    8.5483    1.2486    2.2342 C   0  0  0  0  0  0  0  0  0  0  0  0
    8.0794    3.6085    3.3350 C   0  0  2  0  0  0  0  0  0  0  0  0
    5.9147    3.6654    4.7860 C   0  0  0  0  0  0  0  0  0  0  0  0
    6.9139    4.4850    3.9161 C   0  0  0  0  0  0  0  0  0  0  0  0
    8.9466    4.3753    2.3299 C   0  0  0  0  0  0  0  0  0  0  0  0
    6.2115    5.5395    2.9474 C   0  0  2  0  0  0  0  0  0  0  0  0
    8.1324    5.0947    1.2688 C   0  0  0  0  0  0  0  0  0  0  0  0
    7.2190    6.0939    1.9296 C   0  0  0  0  0  0  0  0  0  0  0  0
    5.7070    6.7246    3.8566 C   0  0  0  0  0  0  0  0  0  0  0  0
    4.9534    5.0143    2.1798 C   0  0  0  0  0  0  0  0  0  0  0  0
    7.3345    7.4059    1.6457 C   0  0  0  0  0  0  0  0  0  0  0  0
    5.3301    7.9814    3.0741 C   0  0  0  0  0  0  0  0  0  0  0  0
    3.8481    5.9198    2.2162 O   0  0  0  0  0  0  0  0  0  0  0  0
    6.5084    8.4954    2.2570 C   0  0  0  0  0  0  0  0  0  0  0  0
    3.2021    5.9705    3.4143 C   0  0  0  0  0  0  0  0  0  0  0  0
    2.6318    6.9491    3.8741 O   0  0  0  0  0  0  0  0  0  0  0  0
    3.3111    4.6476    4.1084 C   0  0  0  0  0  0  0  0  0  0  0  0
  1  2  2  0
  2  3  1  0
  2  4  1  0
  3  5  1  0
  3  6  1  0
  3  7  1  1
  4  8  1  0
  5  9  1  0
  6 10  1  0
  9 11  1  0
  9 12  1  6
 11 13  1  0
 12 14  1  0
 13 15  1  0
 13 16  1  0
 13 17  1  6
 15 18  2  0
 16 19  1  0
 17 20  1  0
 18 21  1  0
 20 22  1  0
 22 23  2  0
 22 24  1  0
  5  8  1  1
 11 10  1  0
 14 15  1  0
 19 21  1  0
M  END
