
     RDKit          3D

 32 36  0  0  0  0  0  0  0  0999 V2000
    3.7154    8.1275    0.9060 O   0  0  0  0  0  0  0  0  0  0  0  0
    4.7623    7.7611    1.4592 N   0  0  0  0  0  0  0  0  0  0  0  0
    5.8547    8.3355    1.3471 O   0  0  0  0  0  0  0  0  0  0  0  0
    4.7042    6.5647    2.3079 C   0  0  0  0  0  0  0  0  0  0  0  0
    5.7304    5.6147    2.2404 C   0  0  0  0  0  0  0  0  0  0  0  0
    3.6227    6.3829    3.1780 C   0  0  0  0  0  0  0  0  0  0  0  0
    5.6719    4.4789    3.0515 C   0  0  0  0  0  0  0  0  0  0  0  0
    3.5738    5.2444    3.9856 C   0  0  0  0  0  0  0  0  0  0  0  0
    4.5961    4.2853    3.9309 C   0  0  0  0  0  0  0  0  0  0  0  0
    4.5265    3.0413    4.7899 C   0  0  0  0  0  0  0  0  0  0  0  0
    5.9035    2.5612    5.2738 C   0  0  0  0  0  0  0  0  0  0  0  0
    6.5638    1.5307    4.3748 C   0  0  0  0  0  0  0  0  0  0  0  0
    7.6685    1.9266    3.7163 C   0  0  0  0  0  0  0  0  0  0  0  0
    5.8974    0.1915    4.0804 C   0  0  0  0  0  0  0  0  0  0  0  0
    8.3751    1.1243    2.7472 C   0  0  0  0  0  0  0  0  0  0  0  0
    6.8099   -0.8317    3.2705 C   0  0  1  0  0  0  0  0  0  0  0  0
    5.1116   -0.6059    5.1505 C   0  0  1  0  0  0  0  0  0  0  0  0
    9.1135    1.7323    1.8032 C   0  0  0  0  0  0  0  0  0  0  0  0
    8.2820   -0.3819    2.9168 C   0  0  1  0  0  0  0  0  0  0  0  0
    6.7273   -2.2951    3.8035 C   0  0  0  0  0  0  0  0  0  0  0  0
    5.9938   -1.4187    6.1108 C   0  0  2  0  0  0  0  0  0  0  0  0
    4.0091   -0.0196    6.0285 C   0  0  0  0  0  0  0  0  0  0  0  0
    9.9284    0.9625    0.8363 C   0  0  0  0  0  0  0  0  0  0  0  0
    8.6884   -1.0711    1.5748 C   0  0  0  0  0  0  0  0  0  0  0  0
    9.3148   -0.7784    3.9972 C   0  0  0  0  0  0  0  0  0  0  0  0
    6.8050   -2.4616    5.3311 C   0  0  0  0  0  0  0  0  0  0  0  0
    4.8949   -2.0115    6.9905 C   0  0  0  0  0  0  0  0  0  0  0  0
    6.8818   -0.5883    7.0469 C   0  0  0  0  0  0  0  0  0  0  0  0
    3.6074   -1.2148    6.9037 C   0  0  0  0  0  0  0  0  0  0  0  0
   10.5775    1.5636   -0.0161 O   0  0  0  0  0  0  0  0  0  0  0  0
    9.9834   -0.5358    0.9767 C   0  0  0  0  0  0  0  0  0  0  0  0
    5.0298   -2.9986    7.7022 O   0  0  0  0  0  0  0  0  0  0  0  0
  1  2  2  0
  2  3  1  0
  2  4  1  0
  4  5  4  0
  4  6  4  0
  5  7  4  0
  6  8  4  0
  7  9  4  0
  9 10  1  0
 10 11  1  0
 11 12  1  0
 12 13  2  0
 12 14  1  0
 13 15  1  0
 14 16  1  0
 14 17  1  0
 15 18  2  0
 15 19  1  0
 16 20  1  1
 17 21  1  0
 17 22  1  1
 18 23  1  0
 19 24  1  0
 19 25  1  1
 20 26  1  0
 21 27  1  0
 21 28  1  1
 22 29  1  0
 23 30  2  0
 23 31  1  0
 27 32  2  0
  8  9  4  0
 16 19  1  0
 21 26  1  0
 24 31  1  0
 27 29  1  0
M  CHG  2   2   1   3  -1
M  END
