
     RDKit          3D

 29 33  0  0  0  0  0  0  0  0999 V2000
    1.7016   -0.0171    1.1000 O   0  0  0  0  0  0  0  0  0  0  0  0
    2.7454   -0.1747    1.7211 C   0  0  0  0  0  0  0  0  0  0  0  0
    3.5124    0.9724    2.2465 C   0  0  0  0  0  0  0  0  0  0  0  0
    3.2940   -1.5203    1.9532 C   0  0  0  0  0  0  0  0  0  0  0  0
    4.6131    0.8268    3.0094 C   0  0  0  0  0  0  0  0  0  0  0  0
    4.3754   -1.6924    2.7223 C   0  0  0  0  0  0  0  0  0  0  0  0
    5.4315    1.9845    3.4231 C   0  0  0  0  0  0  0  0  0  0  0  0
    5.1231   -0.5739    3.4385 C   0  0  1  0  0  0  0  0  0  0  0  0
    6.7032    1.8102    3.8376 C   0  0  0  0  0  0  0  0  0  0  0  0
    4.8469    3.3913    3.4450 C   0  0  0  0  0  0  0  0  0  0  0  0
    6.6498   -0.6152    3.1019 C   0  0  1  0  0  0  0  0  0  0  0  0
    4.8352   -0.7869    4.9438 C   0  0  0  0  0  0  0  0  0  0  0  0
    7.4127    0.4863    3.9043 C   0  0  1  0  0  0  0  0  0  0  0  0
    5.8813    4.5184    3.2776 C   0  0  0  0  0  0  0  0  0  0  0  0
    7.3593   -1.9882    3.2407 C   0  0  0  0  0  0  0  0  0  0  0  0
    8.8494    0.5191    3.3741 C   0  0  2  0  0  0  0  0  0  0  0  0
    5.4139    5.6639    2.4157 C   0  0  0  0  0  0  0  0  0  0  0  0
    8.8591   -1.9237    2.8807 C   0  0  0  0  0  0  0  0  0  0  0  0
    9.5704   -0.8197    3.6586 C   0  0  1  0  0  0  0  0  0  0  0  0
    9.8360    1.5774    3.8575 C   0  0  0  0  0  0  0  0  0  0  0  0
    4.1154    6.1727    2.5540 C   0  0  0  0  0  0  0  0  0  0  0  0
    6.2600    6.2137    1.4429 C   0  0  0  0  0  0  0  0  0  0  0  0
   10.9544   -0.4254    3.1766 C   0  0  0  0  0  0  0  0  0  0  0  0
    9.7226   -1.2069    5.1426 C   0  0  0  0  0  0  0  0  0  0  0  0
   11.1744    1.0736    3.2951 C   0  0  0  0  0  0  0  0  0  0  0  0
    3.6715    7.2086    1.7311 C   0  0  0  0  0  0  0  0  0  0  0  0
    5.8140    7.2496    0.6214 C   0  0  0  0  0  0  0  0  0  0  0  0
   11.8003   -1.2108    2.7709 O   0  0  0  0  0  0  0  0  0  0  0  0
    4.5199    7.7456    0.7648 C   0  0  0  0  0  0  0  0  0  0  0  0
  1  2  2  0
  2  3  1  0
  2  4  1  0
  3  5  2  0
  4  6  2  0
  5  7  1  0
  5  8  1  0
  7  9  2  0
  7 10  1  0
  8 11  1  0
  8 12  1  1
 13  9  1  6
 10 14  1  0
 11 15  1  1
 13 16  1  0
 14 17  1  0
 15 18  1  0
 16 19  1  0
 16 20  1  1
 17 21  4  0
 17 22  4  0
 19 23  1  0
 19 24  1  1
 20 25  1  0
 21 26  4  0
 22 27  4  0
 23 28  2  0
 26 29  4  0
  6  8  1  0
 11 13  1  0
 18 19  1  0
 23 25  1  0
 27 29  4  0
M  END
