
     RDKit          3D

 21 23  0  0  0  0  0  0  0  0999 V2000
    4.6308    2.6752    4.9117 O   0  0  0  0  0  0  0  0  0  0  0  0
    5.2651    3.5754    4.3689 C   0  0  0  0  0  0  0  0  0  0  0  0
    4.5631    4.8692    4.1306 C   0  0  0  0  0  0  0  0  0  0  0  0
    6.7451    3.4296    4.0056 C   0  0  2  0  0  0  0  0  0  0  0  0
    4.2426    5.2107    2.8125 C   0  0  0  0  0  0  0  0  0  0  0  0
    4.2262    5.7288    5.1796 C   0  0  0  0  0  0  0  0  0  0  0  0
    7.3591    4.6356    3.3109 C   0  0  0  0  0  0  0  0  0  0  0  0
    7.0249    2.1057    3.2624 C   0  0  0  0  0  0  0  0  0  0  0  0
    3.6271    6.4318    2.5413 C   0  0  0  0  0  0  0  0  0  0  0  0
    3.6075    6.9520    4.9014 C   0  0  0  0  0  0  0  0  0  0  0  0
    8.1502    5.5619    4.0086 C   0  0  0  0  0  0  0  0  0  0  0  0
    7.1246    4.8452    1.9376 C   0  0  0  0  0  0  0  0  0  0  0  0
    8.4078    1.8132    2.9564 N   0  0  0  0  0  0  0  0  0  0  0  0
    3.3151    7.3058    3.5854 C   0  0  0  0  0  0  0  0  0  0  0  0
    8.7006    6.6624    3.3532 C   0  0  0  0  0  0  0  0  0  0  0  0
    7.6830    5.9447    1.2832 C   0  0  0  0  0  0  0  0  0  0  0  0
    8.9805    2.3013    1.8382 N   0  0  0  0  0  0  0  0  0  0  0  0
    9.3309    1.1806    3.7359 C   0  0  0  0  0  0  0  0  0  0  0  0
    8.4711    6.8516    1.9907 C   0  0  0  0  0  0  0  0  0  0  0  0
   10.2589    1.9439    1.8490 N   0  0  0  0  0  0  0  0  0  0  0  0
   10.4933    1.2627    3.0084 C   0  0  0  0  0  0  0  0  0  0  0  0
  1  2  2  0
  2  3  1  0
  2  4  1  0
  3  5  4  0
  3  6  4  0
  4  7  1  0
  4  8  1  6
  5  9  4  0
  6 10  4  0
  7 11  4  0
  7 12  4  0
  8 13  1  0
  9 14  4  0
 11 15  4  0
 12 16  4  0
 13 17  4  0
 13 18  4  0
 15 19  4  0
 17 20  4  0
 18 21  4  0
 10 14  4  0
 16 19  4  0
 20 21  4  0
M  END
