
     RDKit          3D

 24 27  0  0  0  0  0  0  0  0999 V2000
    6.9726   -0.4293   -1.8506 Br  0  0  0  0  0  0  0  0  0  0  0  0
    6.6074   -0.0698    0.0386 C   0  0  1  0  0  0  0  0  0  0  0  0
    5.1786   -0.3507    0.4868 C   0  0  0  0  0  0  0  0  0  0  0  0
    7.6247   -0.8560    0.8627 C   0  0  0  0  0  0  0  0  0  0  0  0
    4.2078   -0.8207   -0.3215 C   0  0  0  0  0  0  0  0  0  0  0  0
    4.9272   -0.0584    1.9829 C   0  0  2  0  0  0  0  0  0  0  0  0
    7.4851   -0.5337    2.3541 C   0  0  1  0  0  0  0  0  0  0  0  0
    2.7988   -1.0192    0.1022 C   0  0  0  0  0  0  0  0  0  0  0  0
    6.0262   -0.8158    2.8381 C   0  0  1  0  0  0  0  0  0  0  0  0
    3.5293   -0.5919    2.4359 C   0  0  0  0  0  0  0  0  0  0  0  0
    5.0015    1.4676    2.2295 C   0  0  0  0  0  0  0  0  0  0  0  0
    8.4435   -1.3649    3.2117 C   0  0  2  0  0  0  0  0  0  0  0  0
    2.0253   -1.5725   -0.6771 O   0  0  0  0  0  0  0  0  0  0  0  0
    2.3611   -0.4512    1.4422 C   0  0  2  0  0  0  0  0  0  0  0  0
    5.8807   -0.6139    4.3745 C   0  0  0  0  0  0  0  0  0  0  0  0
    8.3616   -0.9698    4.7005 C   0  0  1  0  0  0  0  0  0  0  0  0
    9.9377   -1.3639    2.9076 C   0  0  0  0  0  0  0  0  0  0  0  0
    1.1699   -1.2672    1.9820 C   0  0  0  0  0  0  0  0  0  0  0  0
    1.9000    0.9960    1.2323 C   0  0  0  0  0  0  0  0  0  0  0  0
    6.9666   -1.3282    5.2015 C   0  0  0  0  0  0  0  0  0  0  0  0
    9.5091   -1.8195    5.2162 C   0  0  0  0  0  0  0  0  0  0  0  0
    8.7155    0.4920    5.0311 C   0  0  0  0  0  0  0  0  0  0  0  0
   10.5319   -2.0885    4.1251 C   0  0  0  0  0  0  0  0  0  0  0  0
    9.6173   -2.2171    6.3682 O   0  0  0  0  0  0  0  0  0  0  0  0
  2  1  1  6
  2  3  1  0
  2  4  1  0
  3  5  2  0
  3  6  1  0
  7  4  1  6
  5  8  1  0
  6  9  1  0
  6 10  1  0
  6 11  1  6
  7 12  1  0
  8 13  2  0
  8 14  1  0
  9 15  1  1
 12 16  1  0
 12 17  1  6
 14 18  1  1
 14 19  1  0
 15 20  1  0
 16 21  1  0
 16 22  1  6
 17 23  1  0
 21 24  2  0
  7  9  1  0
 10 14  1  0
 16 20  1  0
 21 23  1  0
M  END
