
     RDKit          3D

 20 23  0  0  0  0  0  0  0  0999 V2000
    2.9780    6.7683    1.2093 O   0  0  0  0  0  0  0  0  0  0  0  0
    3.7244    6.2252    2.0139 C   0  0  0  0  0  0  0  0  0  0  0  0
    5.1909    6.3938    1.9375 C   0  0  0  0  0  0  0  0  0  0  0  0
    3.1952    5.3756    3.0986 C   0  0  0  0  0  0  0  0  0  0  0  0
    6.0171    5.8003    2.8167 C   0  0  0  0  0  0  0  0  0  0  0  0
    4.0213    4.7841    3.9720 C   0  0  0  0  0  0  0  0  0  0  0  0
    5.5380    4.9090    3.9529 C   0  0  1  0  0  0  0  0  0  0  0  0
    7.5078    5.9701    2.7164 C   0  0  0  0  0  0  0  0  0  0  0  0
    6.2215    3.4975    3.8678 C   0  0  2  0  0  0  0  0  0  0  0  0
    5.9089    5.5752    5.3039 C   0  0  0  0  0  0  0  0  0  0  0  0
    8.1659    4.6139    2.5318 C   0  0  0  0  0  0  0  0  0  0  0  0
    7.7679    3.5545    3.5880 C   0  0  0  0  0  0  0  0  0  0  0  0
    5.5633    2.4678    2.9167 C   0  0  0  0  0  0  0  0  0  0  0  0
    8.2891    2.1904    3.0871 C   0  0  2  0  0  0  0  0  0  0  0  0
    6.0837    1.0260    3.1566 C   0  0  0  0  0  0  0  0  0  0  0  0
    7.5479    0.9681    3.6410 C   0  0  1  0  0  0  0  0  0  0  0  0
    9.7642    1.8683    3.2980 C   0  0  0  0  0  0  0  0  0  0  0  0
    8.3862   -0.1578    3.0041 C   0  0  0  0  0  0  0  0  0  0  0  0
    7.6191    0.7985    5.1767 C   0  0  0  0  0  0  0  0  0  0  0  0
    9.8397    0.3474    3.0833 C   0  0  0  0  0  0  0  0  0  0  0  0
  1  2  2  0
  2  3  1  0
  2  4  1  0
  3  5  2  0
  4  6  2  0
  5  7  1  0
  5  8  1  0
  7  9  1  0
  7 10  1  1
  8 11  1  0
  9 12  1  0
  9 13  1  6
 12 14  1  0
 13 15  1  0
 14 16  1  0
 14 17  1  1
 16 18  1  0
 16 19  1  1
 17 20  1  0
  6  7  1  0
 12 11  1  0
 15 16  1  0
 18 20  1  0
M  END
