
     RDKit          3D

 23 26  0  0  0  0  0  0  0  0999 V2000
    3.5862    8.2336    1.8039 O   0  0  0  0  0  0  0  0  0  0  0  0
    4.1173    7.2827    2.3713 C   0  0  0  0  0  0  0  0  0  0  0  0
    5.5934    7.1777    2.3937 C   0  0  0  0  0  0  0  0  0  0  0  0
    3.3283    6.2511    3.1302 C   0  0  0  0  0  0  0  0  0  0  0  0
    6.2230    6.1409    2.9764 C   0  0  0  0  0  0  0  0  0  0  0  0
    4.0278    4.9008    3.0580 C   0  0  0  0  0  0  0  0  0  0  0  0
    5.4939    4.9241    3.5901 C   0  0  1  0  0  0  0  0  0  0  0  0
    7.7285    6.1625    3.0883 C   0  0  0  0  0  0  0  0  0  0  0  0
    6.2193    3.6095    3.0755 C   0  0  1  0  0  0  0  0  0  0  0  0
    5.5591    5.0979    5.1468 C   0  0  0  0  0  0  0  0  0  0  0  0
    8.3501    4.8928    2.5295 C   0  0  0  0  0  0  0  0  0  0  0  0
    7.7788    3.6498    3.2190 C   0  0  2  0  0  0  0  0  0  0  0  0
    5.6347    2.2863    3.6388 C   0  0  0  0  0  0  0  0  0  0  0  0
    4.6669    4.1942    6.0107 C   0  0  0  0  0  0  0  0  0  0  0  0
    8.3518    2.3657    2.6077 C   0  0  2  0  0  0  0  0  0  0  0  0
    6.3343    1.0208    3.1084 C   0  0  0  0  0  0  0  0  0  0  0  0
    3.3096    4.8390    6.2592 C   0  0  0  0  0  0  0  0  0  0  0  0
    7.8409    1.1044    3.3315 C   0  0  1  0  0  0  0  0  0  0  0  0
    9.8613    2.1635    2.5279 C   0  0  0  0  0  0  0  0  0  0  0  0
    8.6942    0.0772    2.6099 C   0  0  0  0  0  0  0  0  0  0  0  0
    8.1972    0.9964    4.8260 C   0  0  0  0  0  0  0  0  0  0  0  0
    9.9835    0.6945    2.0941 C   0  0  0  0  0  0  0  0  0  0  0  0
    8.4021   -1.1040    2.4805 O   0  0  0  0  0  0  0  0  0  0  0  0
  1  2  2  0
  2  3  1  0
  2  4  1  0
  3  5  2  0
  4  6  1  0
  5  7  1  0
  5  8  1  0
  7  9  1  0
  7 10  1  1
  8 11  1  0
  9 12  1  0
  9 13  1  1
 10 14  1  0
 12 15  1  0
 13 16  1  0
 14 17  1  0
 15 18  1  0
 15 19  1  1
 18 20  1  0
 18 21  1  1
 19 22  1  0
 20 23  2  0
  6  7  1  0
 12 11  1  6
 16 18  1  0
 20 22  1  0
M  END
