
     RDKit          3D

 22 25  0  0  0  0  0  0  0  0999 V2000
    8.5336   -0.8770    2.2312 O   0  0  0  0  0  0  0  0  0  0  0  0
    8.7468    0.2814    2.5628 C   0  0  0  0  0  0  0  0  0  0  0  0
    7.7855    1.1453    3.3578 C   0  0  1  0  0  0  0  0  0  0  0  0
   10.0351    1.0274    2.2590 C   0  0  0  0  0  0  0  0  0  0  0  0
    8.2726    2.5297    2.8610 C   0  0  2  0  0  0  0  0  0  0  0  0
    6.3012    1.0065    3.0298 C   0  0  0  0  0  0  0  0  0  0  0  0
    8.0475    0.8239    4.8429 C   0  0  0  0  0  0  0  0  0  0  0  0
    9.7931    2.4102    2.8852 C   0  0  0  0  0  0  0  0  0  0  0  0
    7.5581    3.6592    3.6111 C   0  0  2  0  0  0  0  0  0  0  0  0
    5.4801    2.1588    3.6466 C   0  0  0  0  0  0  0  0  0  0  0  0
    6.0384    3.5554    3.2701 C   0  0  1  0  0  0  0  0  0  0  0  0
    8.1289    5.0669    3.3649 C   0  0  0  0  0  0  0  0  0  0  0  0
    5.2457    4.7843    3.8257 C   0  0  1  0  0  0  0  0  0  0  0  0
    7.2064    6.0231    2.5824 C   0  0  0  0  0  0  0  0  0  0  0  0
    5.7526    6.0345    3.0803 C   0  0  0  0  0  0  0  0  0  0  0  0
    3.7210    4.6014    3.5659 C   0  0  0  0  0  0  0  0  0  0  0  0
    5.4612    4.9693    5.3478 C   0  0  0  0  0  0  0  0  0  0  0  0
    7.8923    7.4067    2.4357 C   0  0  0  0  0  0  0  0  0  0  0  0
    4.9010    7.0260    2.7423 C   0  0  0  0  0  0  0  0  0  0  0  0
    2.9144    5.8699    3.8352 C   0  0  0  0  0  0  0  0  0  0  0  0
    8.6858    7.6048    1.1493 C   0  0  0  0  0  0  0  0  0  0  0  0
    3.4282    7.0511    3.0233 C   0  0  0  0  0  0  0  0  0  0  0  0
  1  2  2  0
  2  3  1  0
  2  4  1  0
  3  5  1  0
  3  6  1  0
  3  7  1  1
  4  8  1  0
  5  9  1  0
  6 10  1  0
  9 11  1  0
  9 12  1  6
 11 13  1  0
 12 14  1  0
 13 15  1  0
 13 16  1  0
 13 17  1  1
 14 18  1  0
 15 19  2  0
 16 20  1  0
 18 21  1  0
 19 22  1  0
  5  8  1  1
 11 10  1  1
 14 15  1  0
 20 22  1  0
M  END
