
     RDKit          3D

 15 16  0  0  0  0  0  0  0  0999 V2000
    6.6050    6.0057    2.7056 O   0  0  0  0  0  0  0  0  0  0  0  0
    7.4779    5.2772    1.9471 C   0  0  0  0  0  0  0  0  0  0  0  0
    6.2619    7.1168    1.9924 C   0  0  0  0  0  0  0  0  0  0  0  0
    7.9576    4.0334    2.5351 C   0  0  0  0  0  0  0  0  0  0  0  0
    7.7000    5.9336    0.7517 C   0  0  0  0  0  0  0  0  0  0  0  0
    6.9228    7.1174    0.7826 C   0  0  0  0  0  0  0  0  0  0  0  0
    5.3099    8.0650    2.6424 C   0  0  0  0  0  0  0  0  0  0  0  0
    7.1734    3.2762    3.4042 C   0  0  0  0  0  0  0  0  0  0  0  0
    9.2341    3.5353    2.2535 C   0  0  0  0  0  0  0  0  0  0  0  0
    3.8791    7.7799    2.4398 N   0  0  0  0  0  0  0  0  0  0  0  0
    7.5622    2.1100    3.9817 N   0  0  0  0  0  0  0  0  0  0  0  0
    9.6645    2.3404    2.8309 C   0  0  0  0  0  0  0  0  0  0  0  0
    3.4368    8.0825    1.0807 C   0  0  0  0  0  0  0  0  0  0  0  0
    3.0233    8.4256    3.4291 C   0  0  0  0  0  0  0  0  0  0  0  0
    8.8006    1.6707    3.6801 C   0  0  0  0  0  0  0  0  0  0  0  0
  1  2  4  0
  1  3  4  0
  2  4  1  0
  2  5  4  0
  3  6  4  0
  3  7  1  0
  4  8  4  0
  4  9  4  0
  7 10  1  0
  8 11  4  0
  9 12  4  0
 10 13  1  0
 10 14  1  0
 11 15  4  0
  5  6  4  0
 12 15  4  0
M  END
