
     RDKit          3D

 23 26  0  0  0  0  0  0  0  0999 V2000
    4.5362    3.8737    4.8314 O   0  0  0  0  0  0  0  0  0  0  0  0
    5.3564    3.7960    3.9238 C   0  0  0  0  0  0  0  0  0  0  0  0
    5.8153    4.9859    3.1691 C   0  0  0  0  0  0  0  0  0  0  0  0
    6.0115    2.5098    3.5352 C   0  0  0  0  0  0  0  0  0  0  0  0
    4.8965    5.7827    2.6028 C   0  0  0  0  0  0  0  0  0  0  0  0
    7.3116    5.2108    3.1807 C   0  0  1  0  0  0  0  0  0  0  0  0
    7.5414    2.6010    3.6523 C   0  0  2  0  0  0  0  0  0  0  0  0
    3.5505    5.4826    2.5536 O   0  0  0  0  0  0  0  0  0  0  0  0
    5.3197    7.0878    2.0154 C   0  0  0  0  0  0  0  0  0  0  0  0
    8.1482    3.8792    2.9552 C   0  0  1  0  0  0  0  0  0  0  0  0
    7.6687    6.2927    2.1230 C   0  0  0  0  0  0  0  0  0  0  0  0
    7.6708    5.7573    4.5906 C   0  0  0  0  0  0  0  0  0  0  0  0
    8.1222    1.3116    3.0407 C   0  0  1  0  0  0  0  0  0  0  0  0
    4.4634    7.7967    1.4871 O   0  0  0  0  0  0  0  0  0  0  0  0
    6.7579    7.5147    2.1678 C   0  0  0  0  0  0  0  0  0  0  0  0
    8.5765    3.5328    1.5056 C   0  0  0  0  0  0  0  0  0  0  0  0
    9.5899    1.4309    2.6125 C   0  0  2  0  0  0  0  0  0  0  0  0
    8.0551    0.0239    3.8554 C   0  0  0  0  0  0  0  0  0  0  0  0
    9.6567    2.4188    1.4418 C   0  0  0  0  0  0  0  0  0  0  0  0
    9.8329   -0.0298    2.2586 C   0  0  0  0  0  0  0  0  0  0  0  0
   10.5945    1.7629    3.7298 C   0  0  0  0  0  0  0  0  0  0  0  0
    8.8905   -0.9515    3.0145 C   0  0  0  0  0  0  0  0  0  0  0  0
   10.6956   -0.4222    1.4843 O   0  0  0  0  0  0  0  0  0  0  0  0
  1  2  2  0
  2  3  1  0
  2  4  1  0
  3  5  2  0
  3  6  1  0
  7  4  1  6
  5  8  1  0
  5  9  1  0
  6 10  1  0
  6 11  1  0
  6 12  1  1
  7 13  1  0
  9 14  2  0
  9 15  1  0
 10 16  1  6
 13 17  1  0
 13 18  1  1
 16 19  1  0
 17 20  1  0
 17 21  1  1
 18 22  1  0
 20 23  2  0
  7 10  1  0
 11 15  1  0
 17 19  1  0
 20 22  1  0
M  END
