
     RDKit          3D

 32 36  0  0  0  0  0  0  0  0999 V2000
    4.3919    7.9613    2.0830 O   0  0  0  0  0  0  0  0  0  0  0  0
    4.0147    6.7930    1.9123 N   0  0  0  0  0  0  0  0  0  0  0  0
    3.1348    6.4441    1.1122 O   0  0  0  0  0  0  0  0  0  0  0  0
    4.6438    5.7425    2.7223 C   0  0  0  0  0  0  0  0  0  0  0  0
    3.9239    5.1547    3.7671 C   0  0  0  0  0  0  0  0  0  0  0  0
    5.9314    5.2990    2.3984 C   0  0  0  0  0  0  0  0  0  0  0  0
    4.4904    4.0868    4.4700 C   0  0  0  0  0  0  0  0  0  0  0  0
    6.4879    4.2282    3.1045 C   0  0  0  0  0  0  0  0  0  0  0  0
    5.7667    3.6043    4.1336 C   0  0  0  0  0  0  0  0  0  0  0  0
    6.3070    2.3440    4.7804 C   0  0  0  0  0  0  0  0  0  0  0  0
    5.1333    1.3757    5.0074 C   0  0  0  0  0  0  0  0  0  0  0  0
    5.2189   -0.0443    4.3916 C   0  0  2  0  0  0  0  0  0  0  0  0
    5.7954   -1.2333    5.2590 C   0  0  0  0  0  0  0  0  0  0  0  0
    5.7141    0.0385    2.9256 C   0  0  0  0  0  0  0  0  0  0  0  0
    7.1815   -1.8239    4.7976 C   0  0  1  0  0  0  0  0  0  0  0  0
    5.8397   -0.9223    6.7732 C   0  0  2  0  0  0  0  0  0  0  0  0
    7.1132   -0.4614    2.7148 C   0  0  0  0  0  0  0  0  0  0  0  0
    7.3810   -1.8465    3.2550 C   0  0  1  0  0  0  0  0  0  0  0  0
    8.3152   -1.1822    5.6338 C   0  0  0  0  0  0  0  0  0  0  0  0
    6.7845   -1.8397    7.5850 C   0  0  1  0  0  0  0  0  0  0  0  0
    4.5384   -0.9550    7.5668 C   0  0  0  0  0  0  0  0  0  0  0  0
    8.0416    0.2694    2.0688 C   0  0  0  0  0  0  0  0  0  0  0  0
    8.7754   -2.3443    2.9117 C   0  0  0  0  0  0  0  0  0  0  0  0
    6.4071   -2.8672    2.6167 C   0  0  0  0  0  0  0  0  0  0  0  0
    8.2221   -1.5822    7.1223 C   0  0  0  0  0  0  0  0  0  0  0  0
    6.4318   -1.3268    8.9725 C   0  0  0  0  0  0  0  0  0  0  0  0
    6.4116   -3.3354    7.5995 C   0  0  0  0  0  0  0  0  0  0  0  0
    5.0322   -0.7339    9.0033 C   0  0  0  0  0  0  0  0  0  0  0  0
    9.3968   -0.2570    1.8055 C   0  0  0  0  0  0  0  0  0  0  0  0
    9.6956   -1.6305    2.2520 C   0  0  0  0  0  0  0  0  0  0  0  0
    7.1598   -1.4055    9.9508 O   0  0  0  0  0  0  0  0  0  0  0  0
   10.2359    0.4074    1.2159 O   0  0  0  0  0  0  0  0  0  0  0  0
  1  2  2  0
  2  3  1  0
  2  4  1  0
  4  5  4  0
  4  6  4  0
  5  7  4  0
  6  8  4  0
  7  9  4  0
  9 10  1  0
 10 11  1  0
 12 11  1  1
 13 12  1  0
 12 14  1  0
 13 15  1  0
 13 16  1  0
 14 17  1  0
 15 18  1  0
 15 19  1  1
 16 20  1  0
 16 21  1  1
 17 22  2  0
 18 23  1  0
 18 24  1  6
 19 25  1  0
 20 26  1  0
 20 27  1  1
 21 28  1  0
 22 29  1  0
 23 30  2  0
 26 31  2  0
 29 32  2  0
  8  9  4  0
 17 18  1  0
 20 25  1  0
 26 28  1  0
 29 30  1  0
M  CHG  2   2   1   3  -1
M  END
