
     RDKit          3D

 26 29  0  0  0  0  0  0  0  0999 V2000
    3.2346    6.9197    1.7548 O   0  0  0  0  0  0  0  0  0  0  0  0
    3.7864    6.0964    2.4799 C   0  0  0  0  0  0  0  0  0  0  0  0
    5.2161    6.2736    2.8337 C   0  0  0  0  0  0  0  0  0  0  0  0
    3.1007    4.8421    2.9481 C   0  0  0  0  0  0  0  0  0  0  0  0
    5.8538    5.4424    3.6820 C   0  0  0  0  0  0  0  0  0  0  0  0
    3.5764    4.5141    4.3500 C   0  0  0  0  0  0  0  0  0  0  0  0
    5.1187    4.3307    4.4628 C   0  0  1  0  0  0  0  0  0  0  0  0
    7.3795    5.4329    3.8390 C   0  0  0  0  0  0  0  0  0  0  0  0
    5.6279    2.9795    3.8491 C   0  0  1  0  0  0  0  0  0  0  0  0
    5.4172    4.4247    5.9822 C   0  0  0  0  0  0  0  0  0  0  0  0
    7.8891    4.0832    3.2895 C   0  0  0  0  0  0  0  0  0  0  0  0
    8.1233    6.6205    3.1777 C   0  0  0  0  0  0  0  0  0  0  0  0
    7.1915    2.8675    3.9291 C   0  0  2  0  0  0  0  0  0  0  0  0
    4.9301    1.7101    4.4081 C   0  0  0  0  0  0  0  0  0  0  0  0
    8.4137    6.4901    1.6742 C   0  0  0  0  0  0  0  0  0  0  0  0
    7.6071    1.5531    3.2624 C   0  0  2  0  0  0  0  0  0  0  0  0
    5.4946    0.3919    3.8440 C   0  0  0  0  0  0  0  0  0  0  0  0
    7.2465    5.9174    0.8668 C   0  0  0  0  0  0  0  0  0  0  0  0
    7.0109    0.3328    3.9942 C   0  0  1  0  0  0  0  0  0  0  0  0
    9.0844    1.2092    3.1061 C   0  0  0  0  0  0  0  0  0  0  0  0
    6.5038    6.9743    0.0445 C   0  0  0  0  0  0  0  0  0  0  0  0
    7.7291   -0.7582    3.2205 C   0  0  0  0  0  0  0  0  0  0  0  0
    7.4184    0.1640    5.4697 C   0  0  0  0  0  0  0  0  0  0  0  0
    9.0442   -0.2564    2.6479 C   0  0  0  0  0  0  0  0  0  0  0  0
    6.3232    8.2975    0.7724 C   0  0  0  0  0  0  0  0  0  0  0  0
    7.3214   -1.9048    3.0926 O   0  0  0  0  0  0  0  0  0  0  0  0
  1  2  2  0
  2  3  1  0
  2  4  1  0
  3  5  2  0
  4  6  1  0
  5  7  1  0
  5  8  1  0
  7  9  1  0
  7 10  1  1
  8 11  1  0
  8 12  1  0
  9 13  1  0
  9 14  1  1
 12 15  1  0
 13 16  1  0
 14 17  1  0
 15 18  1  0
 16 19  1  0
 16 20  1  1
 18 21  1  0
 19 22  1  0
 19 23  1  1
 20 24  1  0
 21 25  1  0
 22 26  2  0
  6  7  1  0
 13 11  1  6
 17 19  1  0
 22 24  1  0
M  END
