
     RDKit          3D

 23 27  0  0  0  0  0  0  0  0999 V2000
    3.6808    8.3880    4.5233 O   0  0  0  0  0  0  0  0  0  0  0  0
    4.1933    7.2827    4.3822 C   0  0  0  0  0  0  0  0  0  0  0  0
    4.7758    6.8935    3.0738 C   0  0  0  0  0  0  0  0  0  0  0  0
    4.2240    6.2370    5.4811 C   0  0  0  0  0  0  0  0  0  0  0  0
    5.2838    5.6525    2.9366 C   0  0  0  0  0  0  0  0  0  0  0  0
    5.5114    5.4090    5.3671 C   0  0  0  0  0  0  0  0  0  0  0  0
    3.1011    5.2424    5.1890 C   0  0  0  0  0  0  0  0  0  0  0  0
    5.2362    4.6083    4.0675 C   0  0  1  0  0  0  0  0  0  0  0  0
    6.1696    5.3432    1.7679 C   0  0  0  0  0  0  0  0  0  0  0  0
    3.7757    4.1260    4.3739 C   0  0  1  0  0  0  0  0  0  0  0  0
    6.2689    3.4451    3.8667 C   0  0  2  0  0  0  0  0  0  0  0  0
    7.5725    5.1126    2.3234 C   0  0  0  0  0  0  0  0  0  0  0  0
    3.7855    2.9627    5.2046 O   0  0  0  0  0  0  0  0  0  0  0  0
    7.6617    3.9137    3.2978 C   0  0  2  0  0  0  0  0  0  0  0  0
    5.7545    2.2218    3.0485 C   0  0  0  0  0  0  0  0  0  0  0  0
    8.3740    2.7459    2.5864 C   0  0  2  0  0  0  0  0  0  0  0  0
    6.6965    0.9972    3.1514 C   0  0  0  0  0  0  0  0  0  0  0  0
    8.1722    1.3891    3.2817 C   0  0  1  0  0  0  0  0  0  0  0  0
    9.8813    2.8420    2.3625 C   0  0  0  0  0  0  0  0  0  0  0  0
    9.1506    0.5692    2.4533 C   0  0  0  0  0  0  0  0  0  0  0  0
    8.6703    1.2987    4.7353 C   0  0  0  0  0  0  0  0  0  0  0  0
   10.2382    1.4407    1.8501 C   0  0  0  0  0  0  0  0  0  0  0  0
    9.0942   -0.6448    2.3066 O   0  0  0  0  0  0  0  0  0  0  0  0
  1  2  2  0
  2  3  1  0
  2  4  1  0
  3  5  2  0
  4  6  1  0
  4  7  1  0
  5  8  1  0
  5  9  1  0
  7 10  1  0
  8 11  1  0
  9 12  1  0
 10 13  1  1
 11 14  1  0
 11 15  1  6
 14 16  1  0
 15 17  1  0
 16 18  1  0
 16 19  1  1
 18 20  1  0
 18 21  1  1
 19 22  1  0
 20 23  2  0
  8  6  1  1
  8 10  1  0
 14 12  1  6
 17 18  1  0
 20 22  1  0
M  END
