
     RDKit          3D

 27 31  0  0  0  0  0  0  0  0999 V2000
    4.6728    7.2839    2.9639 O   0  0  0  0  0  0  0  0  0  0  0  0
    5.4758    6.1836    3.0113 C   0  0  0  0  0  0  0  0  0  0  0  0
    4.9623    4.9239    3.2924 C   0  0  0  0  0  0  0  0  0  0  0  0
    6.8304    6.3559    2.7890 C   0  0  0  0  0  0  0  0  0  0  0  0
    5.8137    3.8038    3.3587 C   0  0  0  0  0  0  0  0  0  0  0  0
    7.6811    5.2511    2.8391 C   0  0  0  0  0  0  0  0  0  0  0  0
    7.1898    3.9557    3.0986 C   0  0  0  0  0  0  0  0  0  0  0  0
    5.2216    2.4640    3.7501 C   0  0  1  0  0  0  0  0  0  0  0  0
    8.1655    2.7827    3.1365 C   0  0  0  0  0  0  0  0  0  0  0  0
    6.0357    1.3377    3.1056 C   0  0  0  0  0  0  0  0  0  0  0  0
    5.1382    2.2919    5.2870 C   0  0  0  0  0  0  0  0  0  0  0  0
    7.5230    1.3980    3.4834 C   0  0  1  0  0  0  0  0  0  0  0  0
    9.0286    2.6854    1.8509 C   0  0  0  0  0  0  0  0  0  0  0  0
    4.3355    1.0870    5.7263 C   0  0  0  0  0  0  0  0  0  0  0  0
    8.2679    0.2452    2.7897 C   0  0  1  0  0  0  0  0  0  0  0  0
   10.1616    1.6400    1.9363 C   0  0  0  0  0  0  0  0  0  0  0  0
    3.5240    1.1501    6.8672 C   0  0  0  0  0  0  0  0  0  0  0  0
    4.3805   -0.1046    4.9895 C   0  0  0  0  0  0  0  0  0  0  0  0
    9.7951    0.4125    2.7912 C   0  0  2  0  0  0  0  0  0  0  0  0
    8.0454   -1.1675    3.3310 C   0  0  0  0  0  0  0  0  0  0  0  0
    2.7700    0.0440    7.2614 C   0  0  0  0  0  0  0  0  0  0  0  0
    3.6269   -1.2103    5.3864 C   0  0  0  0  0  0  0  0  0  0  0  0
   10.1975   -0.9395    2.1633 C   0  0  2  0  0  0  0  0  0  0  0  0
   10.4176    0.5554    4.2021 C   0  0  0  0  0  0  0  0  0  0  0  0
    9.2651   -1.9617    2.8357 C   0  0  0  0  0  0  0  0  0  0  0  0
    2.8217   -1.1356    6.5215 C   0  0  0  0  0  0  0  0  0  0  0  0
   11.5542   -1.2818    2.3679 O   0  0  0  0  0  0  0  0  0  0  0  0
  1  2  1  0
  2  3  4  0
  2  4  4  0
  3  5  4  0
  4  6  4  0
  5  7  4  0
  5  8  1  0
  7  9  1  0
  8 10  1  0
  8 11  1  1
  9 12  1  0
  9 13  1  0
 11 14  1  0
 12 15  1  0
 13 16  1  0
 14 17  4  0
 14 18  4  0
 15 19  1  0
 15 20  1  1
 17 21  4  0
 18 22  4  0
 19 23  1  0
 19 24  1  1
 20 25  1  0
 21 26  4  0
 23 27  1  1
  6  7  4  0
 12 10  1  6
 16 19  1  0
 22 26  4  0
 23 25  1  0
M  END
