
     RDKit          3D

 24 28  0  0  0  0  0  0  0  0999 V2000
    7.7563   -0.8531    3.7181 O   0  0  0  0  0  0  0  0  0  0  0  0
    8.0997    0.3169    3.6120 C   0  0  0  0  0  0  0  0  0  0  0  0
    7.1863    1.5133    3.8442 C   0  0  1  0  0  0  0  0  0  0  0  0
    9.5158    0.7560    3.2678 C   0  0  0  0  0  0  0  0  0  0  0  0
    7.9434    2.5244    2.9708 C   0  0  2  0  0  0  0  0  0  0  0  0
    5.7583    1.3910    3.2858 C   0  0  0  0  0  0  0  0  0  0  0  0
    7.2227    1.7679    5.3620 C   0  0  0  0  0  0  0  0  0  0  0  0
    9.4167    2.2891    3.2765 C   0  0  0  0  0  0  0  0  0  0  0  0
    7.3908    3.9660    3.0335 C   0  0  2  0  0  0  0  0  0  0  0  0
    5.2421    2.7027    2.6285 C   0  0  0  0  0  0  0  0  0  0  0  0
    5.8458    3.9537    3.3103 C   0  0  0  0  0  0  0  0  0  0  0  0
    7.7792    4.6732    1.7072 C   0  0  0  0  0  0  0  0  0  0  0  0
    5.1559    5.3316    3.0483 C   0  0  0  0  0  0  0  0  0  0  0  0
    6.8523    5.7351    1.2193 C   0  0  0  0  0  0  0  0  0  0  0  0
    5.6773    6.0220    1.7913 C   0  0  0  0  0  0  0  0  0  0  0  0
    3.5764    5.2693    2.9688 C   0  0  2  0  0  0  0  0  0  0  0  0
    5.5227    6.3595    4.1666 C   0  0  0  0  0  0  0  0  0  0  0  0
    4.8399    7.2156    1.3946 C   0  0  0  0  0  0  0  0  0  0  0  0
    2.9893    6.5845    2.8180 O   0  0  0  0  0  0  0  0  0  0  0  0
    2.8891    4.6886    4.1823 C   0  0  0  0  0  0  0  0  0  0  0  0
    4.8182    7.6999    3.8944 C   0  0  0  0  0  0  0  0  0  0  0  0
    3.9749    7.5957    2.6148 C   0  0  0  0  0  0  0  0  0  0  0  0
    3.3552    4.7543    5.4373 C   0  0  0  0  0  0  0  0  0  0  0  0
    3.3083    8.8218    2.3934 O   0  0  0  0  0  0  0  0  0  0  0  0
  1  2  2  0
  2  3  1  0
  2  4  1  0
  3  5  1  0
  3  6  1  0
  3  7  1  1
  4  8  1  0
  5  9  1  0
  6 10  1  0
  9 11  1  0
  9 12  1  6
 11 13  1  0
 12 14  1  0
 13 15  1  0
 13 16  1  0
 13 17  1  0
 15 18  1  0
 16 19  1  0
 16 20  1  1
 17 21  1  0
 22 18  1  0
 20 23  2  0
 22 24  1  0
  5  8  1  1
 11 10  1  0
 14 15  2  0
 19 22  1  0
 21 22  1  0
M  END
