
     RDKit          3D

 25 27  0  0  0  0  0  0  0  0999 V2000
    2.2176    6.0946    5.5512 F   0  0  0  0  0  0  0  0  0  0  0  0
    3.3315    5.6212    4.9782 C   0  0  0  0  0  0  0  0  0  0  0  0
    3.5054    5.7437    3.6094 C   0  0  0  0  0  0  0  0  0  0  0  0
    4.2972    5.0065    5.7616 C   0  0  0  0  0  0  0  0  0  0  0  0
    4.6684    5.2445    3.0185 C   0  0  0  0  0  0  0  0  0  0  0  0
    5.4627    4.5082    5.1685 C   0  0  0  0  0  0  0  0  0  0  0  0
    5.6807    4.6257    3.7854 C   0  0  0  0  0  0  0  0  0  0  0  0
    6.9136    4.0810    3.0555 C   0  0  1  0  0  0  0  0  0  0  0  0
    8.0516    4.7171    3.6723 O   0  0  0  0  0  0  0  0  0  0  0  0
    7.1990    2.5427    3.0479 C   0  0  2  0  0  0  0  0  0  0  0  0
    8.2882    6.0347    3.1904 C   0  0  0  0  0  0  0  0  0  0  0  0
    6.4930    1.6911    4.1090 C   0  0  0  0  0  0  0  0  0  0  0  0
    8.7240    2.2750    2.9332 C   0  0  0  0  0  0  0  0  0  0  0  0
    8.1570    6.0871    1.7753 O   0  0  0  0  0  0  0  0  0  0  0  0
    7.2694    0.8898    4.9678 C   0  0  0  0  0  0  0  0  0  0  0  0
    5.0978    1.6136    4.2420 C   0  0  0  0  0  0  0  0  0  0  0  0
    9.0808    1.2186    2.0055 N   0  0  0  0  0  0  0  0  0  0  0  0
    7.1820    7.0427    1.3742 C   0  0  0  0  0  0  0  0  0  0  0  0
    6.6800    0.0876    5.9482 C   0  0  0  0  0  0  0  0  0  0  0  0
    4.5069    0.8120    5.2246 C   0  0  0  0  0  0  0  0  0  0  0  0
    8.4097    0.0532    2.0003 N   0  0  0  0  0  0  0  0  0  0  0  0
   10.0366    1.2423    1.0336 C   0  0  0  0  0  0  0  0  0  0  0  0
    5.2973    0.0547    6.0819 C   0  0  0  0  0  0  0  0  0  0  0  0
    8.9354   -0.7052    1.0478 N   0  0  0  0  0  0  0  0  0  0  0  0
    9.9289    0.0082    0.4401 C   0  0  0  0  0  0  0  0  0  0  0  0
  1  2  1  0
  2  3  4  0
  2  4  4  0
  3  5  4  0
  4  6  4  0
  5  7  4  0
  7  8  1  0
  8  9  1  1
  8 10  1  0
  9 11  1  0
 10 12  1  0
 10 13  1  1
 11 14  1  0
 12 15  4  0
 12 16  4  0
 13 17  1  0
 14 18  1  0
 15 19  4  0
 16 20  4  0
 17 21  4  0
 17 22  4  0
 19 23  4  0
 21 24  4  0
 22 25  4  0
  6  7  4  0
 20 23  4  0
 24 25  4  0
M  END
