
     RDKit          3D

 26 29  0  0  0  0  0  0  0  0999 V2000
    2.3763    0.7545    0.8686 O   0  0  0  0  0  0  0  0  0  0  0  0
    3.2102    0.5190    1.7389 C   0  0  0  0  0  0  0  0  0  0  0  0
    3.9276    1.6430    2.3890 C   0  0  0  0  0  0  0  0  0  0  0  0
    3.6203   -0.8802    2.1089 C   0  0  0  0  0  0  0  0  0  0  0  0
    4.7995    1.4497    3.3987 C   0  0  0  0  0  0  0  0  0  0  0  0
    3.9179   -0.9321    3.5950 C   0  0  0  0  0  0  0  0  0  0  0  0
    5.0219    0.0675    4.0498 C   0  0  1  0  0  0  0  0  0  0  0  0
    5.7518    2.5469    3.8861 C   0  0  1  0  0  0  0  0  0  0  0  0
    6.4668   -0.3691    3.6217 C   0  0  1  0  0  0  0  0  0  0  0  0
    4.8741    0.1457    5.5917 C   0  0  0  0  0  0  0  0  0  0  0  0
    7.1841    2.1051    3.5139 C   0  0  0  0  0  0  0  0  0  0  0  0
    5.4498    3.9722    3.3582 C   0  0  0  0  0  0  0  0  0  0  0  0
    7.5370    0.7004    4.0404 C   0  0  2  0  0  0  0  0  0  0  0  0
    6.8728   -1.7978    4.0740 C   0  0  0  0  0  0  0  0  0  0  0  0
    6.6570    4.9170    3.4295 C   0  0  0  0  0  0  0  0  0  0  0  0
    8.9027    0.2259    3.5357 C   0  0  2  0  0  0  0  0  0  0  0  0
    8.3187   -2.1789    3.7014 C   0  0  0  0  0  0  0  0  0  0  0  0
    6.7485    5.8707    2.2333 C   0  0  0  0  0  0  0  0  0  0  0  0
    9.3075   -1.1188    4.1748 C   0  0  1  0  0  0  0  0  0  0  0  0
   10.1328    1.1090    3.7143 C   0  0  0  0  0  0  0  0  0  0  0  0
    5.3843    6.2688    1.6688 C   0  0  0  0  0  0  0  0  0  0  0  0
   10.7178   -1.2082    3.6202 C   0  0  0  0  0  0  0  0  0  0  0  0
    9.4390   -1.1255    5.7092 C   0  0  0  0  0  0  0  0  0  0  0  0
   11.2835    0.1702    3.3221 C   0  0  0  0  0  0  0  0  0  0  0  0
    4.6317    7.1783    2.6281 C   0  0  0  0  0  0  0  0  0  0  0  0
   11.3371   -2.2510    3.4568 O   0  0  0  0  0  0  0  0  0  0  0  0
  1  2  2  0
  2  3  1  0
  2  4  1  0
  3  5  2  0
  4  6  1  0
  5  7  1  0
  5  8  1  0
  7  9  1  0
  7 10  1  1
  8 11  1  0
  8 12  1  6
  9 13  1  0
  9 14  1  1
 12 15  1  0
 13 16  1  0
 14 17  1  0
 15 18  1  0
 16 19  1  0
 16 20  1  1
 18 21  1  0
 19 22  1  0
 19 23  1  1
 20 24  1  0
 21 25  1  0
 22 26  2  0
  6  7  1  0
 13 11  1  6
 17 19  1  0
 22 24  1  0
M  END
