
     RDKit          3D

 16 17  0  0  0  0  0  0  0  0999 V2000
    3.4927    6.3870    2.6908 S   0  0  0  0  0  0  0  0  0  0  0  0
    3.4170    7.3757    1.2380 C   0  0  0  0  0  0  0  0  0  0  0  0
    5.0921    6.9865    3.3067 C   0  0  0  0  0  0  0  0  0  0  0  0
    3.8255    8.5298    1.2244 O   0  0  0  0  0  0  0  0  0  0  0  0
    2.8502    6.6767    0.0372 C   0  0  0  0  0  0  0  0  0  0  0  0
    6.2152    6.3486    2.5747 C   0  0  0  0  0  0  0  0  0  0  0  0
    6.7271    5.2105    3.1217 O   0  0  0  0  0  0  0  0  0  0  0  0
    6.8879    6.6503    1.4105 C   0  0  0  0  0  0  0  0  0  0  0  0
    7.7288    4.7666    2.3059 C   0  0  0  0  0  0  0  0  0  0  0  0
    7.8604    5.6331    1.2376 C   0  0  0  0  0  0  0  0  0  0  0  0
    8.3939    3.5386    2.7211 C   0  0  0  0  0  0  0  0  0  0  0  0
    9.7676    3.3666    2.5650 C   0  0  0  0  0  0  0  0  0  0  0  0
    7.6935    2.4702    3.2925 C   0  0  0  0  0  0  0  0  0  0  0  0
   10.4547    2.2522    2.9229 N   0  0  0  0  0  0  0  0  0  0  0  0
    8.3684    1.3109    3.6732 C   0  0  0  0  0  0  0  0  0  0  0  0
    9.7360    1.2501    3.4701 C   0  0  0  0  0  0  0  0  0  0  0  0
  1  2  1  0
  1  3  1  0
  2  4  2  0
  2  5  1  0
  3  6  1  0
  6  7  4  0
  6  8  4  0
  7  9  4  0
  8 10  4  0
  9 11  1  0
 11 12  4  0
 11 13  4  0
 12 14  4  0
 13 15  4  0
 14 16  4  0
  9 10  4  0
 15 16  4  0
M  END
