
     RDKit          3D

 21 24  0  0  0  0  0  0  0  0999 V2000
    2.7940    6.1357    2.9509 Br  0  0  0  0  0  0  0  0  0  0  0  0
    4.6161    5.7472    2.6051 C   0  0  0  0  0  0  0  0  0  0  0  0
    5.2979    6.3906    1.5798 C   0  0  0  0  0  0  0  0  0  0  0  0
    5.2756    4.8058    3.3998 C   0  0  0  0  0  0  0  0  0  0  0  0
    4.7058    7.3151    0.7669 O   0  0  0  0  0  0  0  0  0  0  0  0
    6.6386    6.1109    1.3567 C   0  0  0  0  0  0  0  0  0  0  0  0
    6.6259    4.4734    3.1709 C   0  0  0  0  0  0  0  0  0  0  0  0
    7.3179    5.1733    2.1565 C   0  0  0  0  0  0  0  0  0  0  0  0
    7.3439    3.4579    4.0677 C   0  0  0  0  0  0  0  0  0  0  0  0
    8.7765    4.9337    1.8549 C   0  0  0  0  0  0  0  0  0  0  0  0
    8.7097    2.9843    3.4699 C   0  0  0  0  0  0  0  0  0  0  0  0
    6.4808    2.2341    4.4974 C   0  0  0  0  0  0  0  0  0  0  0  0
    9.5047    4.1902    2.9656 C   0  0  0  0  0  0  0  0  0  0  0  0
    8.4553    1.9194    2.3926 C   0  0  0  0  0  0  0  0  0  0  0  0
    6.3562    1.1273    3.4352 C   0  0  0  0  0  0  0  0  0  0  0  0
    7.7367    0.6806    2.9627 C   0  0  1  0  0  0  0  0  0  0  0  0
    9.6237    1.3413    1.6019 C   0  0  0  0  0  0  0  0  0  0  0  0
    7.7883   -0.1901    1.7198 C   0  0  0  0  0  0  0  0  0  0  0  0
    8.4901   -0.0915    4.0624 C   0  0  0  0  0  0  0  0  0  0  0  0
    8.9682    0.1812    0.8354 C   0  0  0  0  0  0  0  0  0  0  0  0
    7.0054   -1.0968    1.4709 O   0  0  0  0  0  0  0  0  0  0  0  0
  1  2  1  0
  2  3  4  0
  2  4  4  0
  3  5  1  0
  3  6  4  0
  4  7  4  0
  6  8  4  0
  7  9  1  0
  8 10  1  0
  9 11  1  0
  9 12  1  0
 10 13  1  0
 11 14  1  0
 12 15  1  0
 14 16  1  0
 14 17  1  0
 16 18  1  0
 16 19  1  1
 17 20  1  0
 18 21  2  0
  7  8  4  0
 11 13  1  0
 15 16  1  0
 18 20  1  0
M  END
