
     RDKit          3D

 21 24  0  0  0  0  0  0  0  0999 V2000
   11.3765    3.0125    2.7966 O   0  0  0  0  0  0  0  0  0  0  0  0
   10.3248    2.4456    3.0637 C   0  0  0  0  0  0  0  0  0  0  0  0
    9.0907    3.2067    3.3437 C   0  0  0  0  0  0  0  0  0  0  0  0
   10.2344    0.9748    3.1067 C   0  0  0  0  0  0  0  0  0  0  0  0
    7.9341    2.5970    3.6601 C   0  0  0  0  0  0  0  0  0  0  0  0
    9.0851    0.3637    3.4235 C   0  0  0  0  0  0  0  0  0  0  0  0
    7.7821    1.0731    3.7748 C   0  0  2  0  0  0  0  0  0  0  0  0
    6.6817    3.4135    3.8625 C   0  0  0  0  0  0  0  0  0  0  0  0
    6.6370    0.6334    2.7891 C   0  0  2  0  0  0  0  0  0  0  0  0
    7.4744    0.7034    5.2427 C   0  0  0  0  0  0  0  0  0  0  0  0
    5.5891    2.9647    2.8960 C   0  0  0  0  0  0  0  0  0  0  0  0
    5.3208    1.4581    3.0099 C   0  0  1  0  0  0  0  0  0  0  0  0
    6.3526   -0.8980    2.7633 C   0  0  0  0  0  0  0  0  0  0  0  0
    4.2931    0.9865    1.9854 C   0  0  1  0  0  0  0  0  0  0  0  0
    5.1825   -1.3020    1.8431 C   0  0  0  0  0  0  0  0  0  0  0  0
    3.9315   -0.4859    2.1566 C   0  0  2  0  0  0  0  0  0  0  0  0
    2.9363    1.6325    1.8814 C   0  0  0  0  0  0  0  0  0  0  0  0
    2.8036   -0.5489    1.1516 C   0  0  0  0  0  0  0  0  0  0  0  0
    3.3332   -0.8901    3.5176 C   0  0  0  0  0  0  0  0  0  0  0  0
    2.1955    0.6863    1.0872 O   0  0  0  0  0  0  0  0  0  0  0  0
    2.4406   -1.5316    0.5288 O   0  0  0  0  0  0  0  0  0  0  0  0
  1  2  2  0
  2  3  1  0
  2  4  1  0
  3  5  2  0
  4  6  2  0
  5  7  1  0
  5  8  1  0
  7  9  1  0
  7 10  1  1
  8 11  1  0
  9 12  1  0
  9 13  1  1
 12 14  1  0
 13 15  1  0
 14 16  1  0
 14 17  1  1
 16 18  1  0
 16 19  1  1
 17 20  1  0
 18 21  2  0
  6  7  1  0
 12 11  1  6
 15 16  1  0
 18 20  1  0
M  END
