
     RDKit          3D

 16 18  0  0  0  0  0  0  0  0999 V2000
    4.5347    6.6592    4.0399 S   0  0  0  0  0  0  0  0  0  0  0  0
    5.1587    7.3978    2.4909 C   0  0  2  0  0  0  0  0  0  0  0  0
    2.8568    6.2805    3.4585 C   0  0  0  0  0  0  0  0  0  0  0  0
    3.8075    7.4979    1.2778 S   0  0  0  0  0  0  0  0  0  0  0  0
    6.3206    6.6288    1.9545 C   0  0  0  0  0  0  0  0  0  0  0  0
    2.8729    6.1063    1.9526 C   0  0  0  0  0  0  0  0  0  0  0  0
    6.7041    5.4982    2.6228 O   0  0  0  0  0  0  0  0  0  0  0  0
    7.1442    6.8179    0.8631 C   0  0  0  0  0  0  0  0  0  0  0  0
    7.7728    4.9618    1.9629 C   0  0  0  0  0  0  0  0  0  0  0  0
    8.0742    5.7490    0.8689 C   0  0  0  0  0  0  0  0  0  0  0  0
    8.3289    3.7398    2.5285 C   0  0  0  0  0  0  0  0  0  0  0  0
    9.6748    3.4055    2.3845 C   0  0  0  0  0  0  0  0  0  0  0  0
    7.5366    2.8382    3.2466 C   0  0  0  0  0  0  0  0  0  0  0  0
   10.2535    2.2845    2.8874 N   0  0  0  0  0  0  0  0  0  0  0  0
    8.0996    1.6768    3.7762 C   0  0  0  0  0  0  0  0  0  0  0  0
    9.4493    1.4466    3.5721 C   0  0  0  0  0  0  0  0  0  0  0  0
  1  2  1  0
  1  3  1  0
  2  4  1  0
  2  5  1  6
  3  6  1  0
  5  7  4  0
  5  8  4  0
  7  9  4  0
  8 10  4  0
  9 11  1  0
 11 12  4  0
 11 13  4  0
 12 14  4  0
 13 15  4  0
 14 16  4  0
  4  6  1  0
  9 10  4  0
 15 16  4  0
M  END
