
     RDKit          3D

 23 26  0  0  0  0  0  0  0  0999 V2000
    7.5701   -1.4226    2.7037 Cl  0  0  0  0  0  0  0  0  0  0  0  0
    8.2849    0.1396    2.7890 C   0  0  0  0  0  0  0  0  0  0  0  0
    7.5086    1.2405    3.1479 C   0  0  0  0  0  0  0  0  0  0  0  0
    9.6296    0.3012    2.5018 C   0  0  0  0  0  0  0  0  0  0  0  0
    8.0631    2.5424    3.2230 C   0  0  0  0  0  0  0  0  0  0  0  0
   10.1915    1.5759    2.5761 C   0  0  0  0  0  0  0  0  0  0  0  0
    9.4430    2.6914    2.9275 C   0  0  0  0  0  0  0  0  0  0  0  0
    7.3370    3.7173    3.5732 C   0  0  0  0  0  0  0  0  0  0  0  0
   10.0829    3.8677    2.9666 N   0  0  0  0  0  0  0  0  0  0  0  0
    8.0284    4.9390    3.6022 C   0  0  0  0  0  0  0  0  0  0  0  0
    5.8433    3.7181    3.8808 C   0  0  1  0  0  0  0  0  0  0  0  0
    9.3750    4.9604    3.3015 C   0  0  0  0  0  0  0  0  0  0  0  0
    5.6707    4.1379    5.2462 O   0  0  0  0  0  0  0  0  0  0  0  0
    5.0171    4.6201    2.9008 C   0  0  1  0  0  0  0  0  0  0  0  0
    3.8868    5.3638    3.5309 N   0  0  0  0  0  0  0  0  0  0  0  0
    5.9141    5.6053    2.1066 C   0  0  0  0  0  0  0  0  0  0  0  0
    2.9636    5.8127    2.4501 C   0  0  0  0  0  0  0  0  0  0  0  0
    4.3838    6.5831    4.2153 C   0  0  0  0  0  0  0  0  0  0  0  0
    5.1375    6.9148    1.8544 C   0  0  0  0  0  0  0  0  0  0  0  0
    3.7295    6.5460    1.3085 C   0  0  0  0  0  0  0  0  0  0  0  0
    4.9749    7.5965    3.2228 C   0  0  0  0  0  0  0  0  0  0  0  0
    3.0527    7.7438    0.6750 C   0  0  0  0  0  0  0  0  0  0  0  0
    3.3767    8.3780   -0.4594 C   0  0  0  0  0  0  0  0  0  0  0  0
  1  2  1  0
  2  3  4  0
  2  4  4  0
  3  5  4  0
  4  6  4  0
  5  7  4  0
  5  8  4  0
  7  9  4  0
  8 10  4  0
  8 11  1  0
  9 12  4  0
 11 13  1  1
 11 14  1  0
 14 15  1  0
 14 16  1  1
 15 17  1  0
 15 18  1  0
 16 19  1  0
 17 20  1  0
 18 21  1  0
 20 22  1  0
 22 23  2  0
  6  7  4  0
 10 12  4  0
 19 20  1  0
 19 21  1  0
M  END
