
     RDKit          3D

 21 24  0  0  0  0  0  0  0  0999 V2000
    3.5578    8.2398    2.5624 O   0  0  0  0  0  0  0  0  0  0  0  0
    4.2329    7.1063    2.9186 C   0  0  0  0  0  0  0  0  0  0  0  0
    3.8224    6.2748    3.9650 C   0  0  0  0  0  0  0  0  0  0  0  0
    5.3733    6.8146    2.1730 C   0  0  0  0  0  0  0  0  0  0  0  0
    4.5850    5.1282    4.2392 C   0  0  0  0  0  0  0  0  0  0  0  0
    2.5997    6.5594    4.7870 C   0  0  0  0  0  0  0  0  0  0  0  0
    6.1371    5.6800    2.4645 C   0  0  0  0  0  0  0  0  0  0  0  0
    5.7375    4.8191    3.4960 C   0  0  0  0  0  0  0  0  0  0  0  0
    7.3792    5.3655    1.6810 C   0  0  0  0  0  0  0  0  0  0  0  0
    6.5012    3.5327    3.7703 C   0  0  2  0  0  0  0  0  0  0  0  0
    8.4502    4.8620    2.6399 C   0  0  0  0  0  0  0  0  0  0  0  0
    8.0244    3.5871    3.3933 C   0  0  0  0  0  0  0  0  0  0  0  0
    5.7474    2.3624    3.0877 C   0  0  0  0  0  0  0  0  0  0  0  0
    8.4335    2.3126    2.6375 C   0  0  2  0  0  0  0  0  0  0  0  0
    6.3909    0.9791    3.2726 C   0  0  0  0  0  0  0  0  0  0  0  0
    7.9270    1.0307    3.3298 C   0  0  1  0  0  0  0  0  0  0  0  0
    9.9300    2.0535    2.4387 C   0  0  0  0  0  0  0  0  0  0  0  0
    8.6262   -0.0272    2.4524 C   0  0  1  0  0  0  0  0  0  0  0  0
    8.3730    0.8954    4.8081 C   0  0  0  0  0  0  0  0  0  0  0  0
   10.0406    0.5339    2.2398 C   0  0  0  0  0  0  0  0  0  0  0  0
    8.6532   -1.3094    3.0482 O   0  0  0  0  0  0  0  0  0  0  0  0
  1  2  1  0
  2  3  4  0
  2  4  4  0
  3  5  4  0
  3  6  1  0
  4  7  4  0
  5  8  4  0
  7  9  1  0
  8 10  1  0
  9 11  1  0
 10 12  1  0
 10 13  1  6
 12 14  1  0
 13 15  1  0
 14 16  1  0
 14 17  1  1
 16 18  1  0
 16 19  1  1
 17 20  1  0
 18 21  1  1
  7  8  4  0
 12 11  1  0
 15 16  1  0
 18 20  1  0
M  END
