
     RDKit          3D

 25 28  0  0  0  0  0  0  0  0999 V2000
   11.4443   -4.4754    1.5984 F   0  0  0  0  0  0  0  0  0  0  0  0
   10.6838   -3.4063    1.8586 C   0  0  0  0  0  0  0  0  0  0  0  0
    9.6589   -3.4449    2.7625 C   0  0  0  0  0  0  0  0  0  0  0  0
   10.8577   -2.2123    1.2168 C   0  0  0  0  0  0  0  0  0  0  0  0
    8.8570   -2.3922    3.0168 N   0  0  0  0  0  0  0  0  0  0  0  0
   10.0861   -1.1295    1.4476 N   0  0  0  0  0  0  0  0  0  0  0  0
    9.0877   -1.2462    2.3445 C   0  0  0  0  0  0  0  0  0  0  0  0
    8.2897   -0.1494    2.6086 N   0  0  0  0  0  0  0  0  0  0  0  0
    7.0949   -0.3399    3.4402 C   0  0  0  0  0  0  0  0  0  0  0  0
    8.9978    1.1285    2.7627 C   0  0  0  0  0  0  0  0  0  0  0  0
    7.1839    0.5079    4.7285 C   0  0  0  0  0  0  0  0  0  0  0  0
    8.0203    2.2371    3.2155 C   0  0  0  0  0  0  0  0  0  0  0  0
    7.3698    1.9630    4.5236 N   0  0  0  0  0  0  0  0  0  0  0  0
    6.0961    2.6852    4.6425 C   0  0  0  0  0  0  0  0  0  0  0  0
    6.1691    3.9887    3.9004 C   0  0  0  0  0  0  0  0  0  0  0  0
    5.3280    4.3801    2.9993 N   0  0  0  0  0  0  0  0  0  0  0  0
    7.2522    4.9850    4.1427 C   0  0  0  0  0  0  0  0  0  0  0  0
    5.7915    5.6212    2.6197 C   0  0  0  0  0  0  0  0  0  0  0  0
    6.8677    6.0605    3.2098 N   0  0  0  0  0  0  0  0  0  0  0  0
    5.0591    6.3844    1.5836 C   0  0  0  0  0  0  0  0  0  0  0  0
    3.6591    6.3573    1.5623 C   0  0  0  0  0  0  0  0  0  0  0  0
    5.7533    7.1368    0.6272 C   0  0  0  0  0  0  0  0  0  0  0  0
    2.9605    7.0785    0.5907 C   0  0  0  0  0  0  0  0  0  0  0  0
    5.0508    7.8561   -0.3428 C   0  0  0  0  0  0  0  0  0  0  0  0
    3.6568    7.8270   -0.3597 C   0  0  0  0  0  0  0  0  0  0  0  0
  1  2  1  0
  2  3  4  0
  2  4  4  0
  3  5  4  0
  4  6  4  0
  5  7  4  0
  7  8  1  0
  8  9  1  0
  8 10  1  0
  9 11  1  0
 10 12  1  0
 11 13  1  0
 13 14  1  0
 14 15  1  0
 15 16  2  0
 15 17  1  0
 16 18  1  0
 17 19  1  0
 18 20  1  0
 20 21  4  0
 20 22  4  0
 21 23  4  0
 22 24  4  0
 23 25  4  0
  6  7  4  0
 12 13  1  0
 18 19  2  0
 24 25  4  0
M  END
