
     RDKit          3D

 23 26  0  0  0  0  0  0  0  0999 V2000
    3.4304    7.8957    2.0132 O   0  0  0  0  0  0  0  0  0  0  0  0
    3.9936    6.9659    2.5850 C   0  0  0  0  0  0  0  0  0  0  0  0
    5.4743    6.9003    2.5885 C   0  0  0  0  0  0  0  0  0  0  0  0
    3.2421    5.9292    3.3695 C   0  0  0  0  0  0  0  0  0  0  0  0
    6.1592    5.8835    3.1500 C   0  0  0  0  0  0  0  0  0  0  0  0
    3.9565    4.5933    3.2663 C   0  0  0  0  0  0  0  0  0  0  0  0
    5.4469    4.6374    3.7247 C   0  0  1  0  0  0  0  0  0  0  0  0
    7.6911    5.9039    3.2908 C   0  0  1  0  0  0  0  0  0  0  0  0
    6.1505    3.3344    3.1859 C   0  0  1  0  0  0  0  0  0  0  0  0
    5.4831    4.7231    5.2678 C   0  0  0  0  0  0  0  0  0  0  0  0
    8.2899    4.6133    2.7086 C   0  0  0  0  0  0  0  0  0  0  0  0
    8.3926    7.1572    2.7077 C   0  0  0  0  0  0  0  0  0  0  0  0
    7.6969    3.3636    3.3711 C   0  0  2  0  0  0  0  0  0  0  0  0
    5.5253    2.0111    3.7154 C   0  0  0  0  0  0  0  0  0  0  0  0
    8.3562    7.2449    1.1861 C   0  0  0  0  0  0  0  0  0  0  0  0
    8.2784    2.0774    2.7748 C   0  0  2  0  0  0  0  0  0  0  0  0
    6.2434    0.7403    3.2248 C   0  0  0  0  0  0  0  0  0  0  0  0
    7.7418    0.8227    3.4929 C   0  0  1  0  0  0  0  0  0  0  0  0
    9.7886    1.8669    2.7373 C   0  0  0  0  0  0  0  0  0  0  0  0
    8.6125   -0.2139    2.8062 C   0  0  0  0  0  0  0  0  0  0  0  0
    8.0480    0.7251    4.9988 C   0  0  0  0  0  0  0  0  0  0  0  0
    9.9163    0.3945    2.3185 C   0  0  0  0  0  0  0  0  0  0  0  0
    8.3212   -1.3959    2.6817 O   0  0  0  0  0  0  0  0  0  0  0  0
  1  2  2  0
  2  3  1  0
  2  4  1  0
  3  5  2  0
  4  6  1  0
  5  7  1  0
  5  8  1  0
  7  9  1  0
  7 10  1  1
  8 11  1  0
  8 12  1  6
  9 13  1  0
  9 14  1  1
 12 15  1  0
 13 16  1  0
 14 17  1  0
 16 18  1  0
 16 19  1  1
 18 20  1  0
 18 21  1  1
 19 22  1  0
 20 23  2  0
  6  7  1  0
 13 11  1  6
 17 18  1  0
 20 22  1  0
M  END
