
     RDKit          3D

 25 27  0  0  0  0  0  0  0  0999 V2000
    9.5249   -2.5799    1.5260 Br  0  0  0  0  0  0  0  0  0  0  0  0
    9.1835   -0.8333    2.1621 C   0  0  0  0  0  0  0  0  0  0  0  0
    9.0982   -0.6003    3.5321 C   0  0  0  0  0  0  0  0  0  0  0  0
    9.0190    0.2124    1.2571 C   0  0  0  0  0  0  0  0  0  0  0  0
    8.8468    0.6911    4.0016 C   0  0  0  0  0  0  0  0  0  0  0  0
    8.7670    1.5033    1.7276 C   0  0  0  0  0  0  0  0  0  0  0  0
    8.6770    1.7599    3.1064 C   0  0  0  0  0  0  0  0  0  0  0  0
    8.4203    3.1859    3.5880 C   0  0  1  0  0  0  0  0  0  0  0  0
    9.2911    4.1082    2.9241 O   0  0  0  0  0  0  0  0  0  0  0  0
    6.9378    3.5935    3.3386 C   0  0  1  0  0  0  0  0  0  0  0  0
   10.5550    3.5367    2.6040 C   0  0  0  0  0  0  0  0  0  0  0  0
    5.9965    2.4768    3.7914 C   0  0  0  0  0  0  0  0  0  0  0  0
    6.5829    4.9441    3.9899 C   0  0  0  0  0  0  0  0  0  0  0  0
   11.4286    3.7250    3.7097 O   0  0  0  0  0  0  0  0  0  0  0  0
    5.6736    2.2872    5.1444 C   0  0  0  0  0  0  0  0  0  0  0  0
    5.4369    1.6091    2.8402 C   0  0  0  0  0  0  0  0  0  0  0  0
    5.1622    5.2306    3.9268 N   0  0  0  0  0  0  0  0  0  0  0  0
   12.3919    2.6859    3.7959 C   0  0  0  0  0  0  0  0  0  0  0  0
    4.8209    1.2532    5.5348 C   0  0  0  0  0  0  0  0  0  0  0  0
    4.5839    0.5763    3.2336 C   0  0  0  0  0  0  0  0  0  0  0  0
    4.5492    5.4465    2.7517 N   0  0  0  0  0  0  0  0  0  0  0  0
    4.2767    5.2762    4.9637 C   0  0  0  0  0  0  0  0  0  0  0  0
    4.2778    0.3972    4.5802 C   0  0  0  0  0  0  0  0  0  0  0  0
    3.2639    5.6567    3.0058 N   0  0  0  0  0  0  0  0  0  0  0  0
    3.0776    5.5541    4.3546 C   0  0  0  0  0  0  0  0  0  0  0  0
  1  2  1  0
  2  3  4  0
  2  4  4  0
  3  5  4  0
  4  6  4  0
  5  7  4  0
  7  8  1  0
  8  9  1  6
  8 10  1  0
  9 11  1  0
 10 12  1  0
 10 13  1  1
 11 14  1  0
 12 15  4  0
 12 16  4  0
 13 17  1  0
 14 18  1  0
 15 19  4  0
 16 20  4  0
 17 21  4  0
 17 22  4  0
 19 23  4  0
 21 24  4  0
 22 25  4  0
  6  7  4  0
 20 23  4  0
 24 25  4  0
M  END
