
     RDKit          3D

 23 27  0  0  0  0  0  0  0  0999 V2000
    3.9815    6.2302    5.9513 S   0  0  0  0  0  0  0  0  0  0  0  0
    5.3994    5.4448    5.3423 C   0  0  0  0  0  0  0  0  0  0  0  0
    4.7502    4.8013    6.5411 C   0  0  0  0  0  0  0  0  0  0  0  0
    5.4389    4.8422    3.9080 C   0  0  1  0  0  0  0  0  0  0  0  0
    6.1086    5.8872    2.9952 C   0  0  0  0  0  0  0  0  0  0  0  0
    6.2030    3.4275    3.8434 C   0  0  2  0  0  0  0  0  0  0  0  0
    3.9570    4.6751    3.4160 C   0  0  0  0  0  0  0  0  0  0  0  0
    5.4367    6.7638    2.2252 C   0  0  0  0  0  0  0  0  0  0  0  0
    7.6068    5.9606    3.0602 C   0  0  0  0  0  0  0  0  0  0  0  0
    7.7640    3.5018    3.6199 C   0  0  2  0  0  0  0  0  0  0  0  0
    5.5940    2.3354    2.9154 C   0  0  0  0  0  0  0  0  0  0  0  0
    3.2085    5.9880    3.2204 C   0  0  0  0  0  0  0  0  0  0  0  0
    3.9581    6.8608    2.2496 C   0  0  0  0  0  0  0  0  0  0  0  0
    8.1980    4.6267    2.6699 C   0  0  0  0  0  0  0  0  0  0  0  0
    8.3113    2.1755    3.0586 C   0  0  2  0  0  0  0  0  0  0  0  0
    6.1797    0.9189    3.1560 C   0  0  0  0  0  0  0  0  0  0  0  0
    3.3966    7.6876    1.5362 O   0  0  0  0  0  0  0  0  0  0  0  0
    7.6298    0.9335    3.6465 C   0  0  1  0  0  0  0  0  0  0  0  0
    9.8062    1.8945    3.1826 C   0  0  0  0  0  0  0  0  0  0  0  0
    8.5407   -0.1264    3.0436 C   0  0  0  0  0  0  0  0  0  0  0  0
    7.7371    0.7647    5.1721 C   0  0  0  0  0  0  0  0  0  0  0  0
    9.9161    0.4338    2.7268 C   0  0  0  0  0  0  0  0  0  0  0  0
    8.2233   -1.2941    2.8592 O   0  0  0  0  0  0  0  0  0  0  0  0
  2  1  1  0
  1  3  1  0
  4  2  1  1
  4  5  1  0
  4  6  1  0
  4  7  1  0
  5  8  2  0
  5  9  1  0
  6 10  1  0
  6 11  1  6
  7 12  1  0
  8 13  1  0
  9 14  1  0
 10 15  1  0
 11 16  1  0
 13 17  2  0
 15 18  1  0
 15 19  1  1
 18 20  1  0
 18 21  1  1
 19 22  1  0
 20 23  2  0
  2  3  1  0
 10 14  1  6
 12 13  1  0
 16 18  1  0
 20 22  1  0
M  END
