
     RDKit          3D

 27 31  0  0  0  0  0  0  0  0999 V2000
    9.8920   -0.4589    1.6596 O   0  0  0  0  0  0  0  0  0  0  0  0
    9.5754    0.7169    1.8259 C   0  0  0  0  0  0  0  0  0  0  0  0
    8.4302    1.0394    2.7059 C   0  0  0  0  0  0  0  0  0  0  0  0
   10.3553    1.8486    1.2100 C   0  0  0  0  0  0  0  0  0  0  0  0
    8.0585    2.3077    2.9506 C   0  0  0  0  0  0  0  0  0  0  0  0
    9.4907    3.0916    1.0378 C   0  0  0  0  0  0  0  0  0  0  0  0
    6.9423    2.5562    3.8488 C   0  0  0  0  0  0  0  0  0  0  0  0
    8.7589    3.5269    2.3393 C   0  0  1  0  0  0  0  0  0  0  0  0
    6.3678    3.7620    4.0122 C   0  0  0  0  0  0  0  0  0  0  0  0
    7.6708    4.6033    1.9907 C   0  0  1  0  0  0  0  0  0  0  0  0
    9.8004    4.0650    3.3486 C   0  0  0  0  0  0  0  0  0  0  0  0
    5.3522    3.9074    5.0773 C   0  0  0  0  0  0  0  0  0  0  0  0
    6.7986    4.9899    3.2234 C   0  0  1  0  0  0  0  0  0  0  0  0
    8.2239    5.8864    1.3425 C   0  0  0  0  0  0  0  0  0  0  0  0
    4.5431    2.8211    5.4376 C   0  0  0  0  0  0  0  0  0  0  0  0
    5.1760    5.1301    5.7411 C   0  0  0  0  0  0  0  0  0  0  0  0
    5.6358    5.9315    2.8079 C   0  0  1  0  0  0  0  0  0  0  0  0
    7.0934    6.7972    0.8687 C   0  0  0  0  0  0  0  0  0  0  0  0
    3.5859    2.9520    6.4463 C   0  0  0  0  0  0  0  0  0  0  0  0
    4.2193    5.2599    6.7501 C   0  0  0  0  0  0  0  0  0  0  0  0
    6.0974    7.1579    1.9807 C   0  0  1  0  0  0  0  0  0  0  0  0
    4.5272    5.3050    1.9479 C   0  0  0  0  0  0  0  0  0  0  0  0
    3.4256    4.1705    7.1028 C   0  0  0  0  0  0  0  0  0  0  0  0
    4.7811    7.5709    1.3322 C   0  0  0  0  0  0  0  0  0  0  0  0
    6.6314    8.2740    2.8800 C   0  0  0  0  0  0  0  0  0  0  0  0
    3.7243    6.5020    1.4500 C   0  0  0  0  0  0  0  0  0  0  0  0
    4.5938    8.6453    0.7739 O   0  0  0  0  0  0  0  0  0  0  0  0
  1  2  2  0
  2  3  1  0
  2  4  1  0
  3  5  2  0
  4  6  1  0
  5  7  1  0
  5  8  1  0
  7  9  2  0
  8 10  1  0
  8 11  1  1
  9 12  1  0
 13  9  1  6
 10 14  1  1
 12 15  4  0
 12 16  4  0
 13 17  1  0
 14 18  1  0
 15 19  4  0
 16 20  4  0
 17 21  1  0
 17 22  1  6
 19 23  4  0
 21 24  1  0
 21 25  1  1
 22 26  1  0
 24 27  2  0
  6  8  1  0
 10 13  1  0
 18 21  1  0
 20 23  4  0
 24 26  1  0
M  END
