
     RDKit          3D

 27 30  0  0  0  0  0  0  0  0999 V2000
    4.9752   -2.2996    3.7326 O   0  0  0  0  0  0  0  0  0  0  0  0
    5.2843   -1.1084    3.6228 C   0  0  0  0  0  0  0  0  0  0  0  0
    6.7272   -0.8091    3.4884 C   0  0  0  0  0  0  0  0  0  0  0  0
    4.2488   -0.0244    3.3890 C   0  0  0  0  0  0  0  0  0  0  0  0
    7.5523   -0.2502    4.4973 C   0  0  0  0  0  0  0  0  0  0  0  0
    7.2662   -1.2268    2.2577 C   0  0  0  0  0  0  0  0  0  0  0  0
    4.6410    1.3985    3.7419 C   0  0  0  0  0  0  0  0  0  0  0  0
    8.9301   -0.0843    4.2060 C   0  0  0  0  0  0  0  0  0  0  0  0
    7.1202    0.2464    5.8632 C   0  0  0  0  0  0  0  0  0  0  0  0
    8.6159   -1.0640    2.0403 C   0  0  0  0  0  0  0  0  0  0  0  0
    4.5742    1.9055    5.0651 C   0  0  0  0  0  0  0  0  0  0  0  0
    5.0747    2.2443    2.7032 C   0  0  0  0  0  0  0  0  0  0  0  0
    9.4277   -0.5050    2.9884 C   0  0  0  0  0  0  0  0  0  0  0  0
    6.0311   -0.4856    6.6625 C   0  0  0  0  0  0  0  0  0  0  0  0
    9.2989   -1.4293    0.9261 O   0  0  0  0  0  0  0  0  0  0  0  0
    4.9022    3.2674    5.2880 C   0  0  0  0  0  0  0  0  0  0  0  0
    4.1161    1.0501    6.2432 C   0  0  0  0  0  0  0  0  0  0  0  0
    5.3992    3.5828    2.9425 C   0  0  0  0  0  0  0  0  0  0  0  0
   10.7301   -0.4445    2.5915 O   0  0  0  0  0  0  0  0  0  0  0  0
    4.6321   -0.3332    6.2330 N   0  0  0  0  0  0  0  0  0  0  0  0
   10.6535   -1.1125    1.3162 C   0  0  0  0  0  0  0  0  0  0  0  0
    4.7448    3.7347    6.5772 O   0  0  0  0  0  0  0  0  0  0  0  0
    5.2877    4.1153    4.2276 C   0  0  0  0  0  0  0  0  0  0  0  0
    3.7676   -1.1994    7.0432 C   0  0  0  0  0  0  0  0  0  0  0  0
    3.5165    4.4372    6.7740 C   0  0  0  0  0  0  0  0  0  0  0  0
    5.5265    5.4285    4.5322 O   0  0  0  0  0  0  0  0  0  0  0  0
    4.7970    6.4121    3.8050 C   0  0  0  0  0  0  0  0  0  0  0  0
  1  2  2  0
  2  3  1  0
  2  4  1  0
  3  5  4  0
  3  6  4  0
  4  7  1  0
  5  8  4  0
  5  9  1  0
  6 10  4  0
  7 11  4  0
  7 12  4  0
  8 13  4  0
  9 14  1  0
 10 15  1  0
 11 16  4  0
 11 17  1  0
 12 18  4  0
 13 19  1  0
 14 20  1  0
 15 21  1  0
 16 22  1  0
 16 23  4  0
 20 24  1  0
 22 25  1  0
 23 26  1  0
 26 27  1  0
 10 13  4  0
 17 20  1  0
 18 23  4  0
 19 21  1  0
M  END
