
     RDKit          3D

 22 25  0  0  0  0  0  0  0  0999 V2000
    8.3071   -1.2243    2.5594 O   0  0  0  0  0  0  0  0  0  0  0  0
    8.5745   -0.0361    2.6796 C   0  0  0  0  0  0  0  0  0  0  0  0
    7.7020    0.9778    3.3974 C   0  0  1  0  0  0  0  0  0  0  0  0
    9.8494    0.6034    2.1561 C   0  0  0  0  0  0  0  0  0  0  0  0
    8.1917    2.2475    2.6718 C   0  0  2  0  0  0  0  0  0  0  0  0
    6.1979    0.8647    3.1731 C   0  0  0  0  0  0  0  0  0  0  0  0
    8.0542    0.8785    4.8932 C   0  0  0  0  0  0  0  0  0  0  0  0
    9.7039    2.0700    2.5889 C   0  0  0  0  0  0  0  0  0  0  0  0
    7.6021    3.5171    3.2926 C   0  0  2  0  0  0  0  0  0  0  0  0
    5.4671    2.1169    3.6927 C   0  0  0  0  0  0  0  0  0  0  0  0
    6.0477    3.4542    3.1506 C   0  0  1  0  0  0  0  0  0  0  0  0
    8.1450    4.7823    2.6215 C   0  0  0  0  0  0  0  0  0  0  0  0
    5.3311    4.7391    3.7141 C   0  0  1  0  0  0  0  0  0  0  0  0
    7.5156    6.0473    3.2080 C   0  0  2  0  0  0  0  0  0  0  0  0
    5.9949    5.9944    3.1143 C   0  0  0  0  0  0  0  0  0  0  0  0
    3.8195    4.6688    3.3264 C   0  0  0  0  0  0  0  0  0  0  0  0
    5.4325    4.8276    5.2556 C   0  0  0  0  0  0  0  0  0  0  0  0
    8.0287    7.1780    2.4935 O   0  0  0  0  0  0  0  0  0  0  0  0
    5.2700    6.9849    2.5532 C   0  0  0  0  0  0  0  0  0  0  0  0
    3.1142    6.0176    3.4119 C   0  0  0  0  0  0  0  0  0  0  0  0
    8.0664    6.9760    1.0880 C   0  0  0  0  0  0  0  0  0  0  0  0
    3.7757    7.0267    2.4839 C   0  0  0  0  0  0  0  0  0  0  0  0
  1  2  2  0
  2  3  1  0
  2  4  1  0
  3  5  1  0
  3  6  1  0
  3  7  1  1
  4  8  1  0
  5  9  1  0
  6 10  1  0
  9 11  1  0
  9 12  1  6
 11 13  1  0
 12 14  1  0
 13 15  1  0
 13 16  1  0
 13 17  1  1
 14 18  1  6
 15 19  2  0
 16 20  1  0
 18 21  1  0
 19 22  1  0
  5  8  1  1
 11 10  1  1
 14 15  1  0
 20 22  1  0
M  END
