
     RDKit          3D

 36 39  0  0  0  0  0  0  0  0999 V2000
    8.7632   -2.3514    7.1708 O   0  0  0  0  0  0  0  0  0  0  0  0
    7.7900   -2.9864    6.7661 C   0  0  0  0  0  0  0  0  0  0  0  0
    6.5890   -2.3837    6.3436 N   0  0  0  0  0  0  0  0  0  0  0  0
    7.8752   -4.4750    6.8271 C   0  0  0  0  0  0  0  0  0  0  0  0
    5.4337   -3.1539    5.9790 C   0  0  0  0  0  0  0  0  0  0  0  0
    6.6493   -0.9963    5.8188 C   0  0  0  0  0  0  0  0  0  0  0  0
    7.2690   -5.1388    7.8976 C   0  0  0  0  0  0  0  0  0  0  0  0
    8.4824   -5.2194    5.8094 C   0  0  0  0  0  0  0  0  0  0  0  0
    5.2104   -3.5467    4.6516 C   0  0  0  0  0  0  0  0  0  0  0  0
    4.4923   -3.5200    6.9507 C   0  0  0  0  0  0  0  0  0  0  0  0
    5.2617   -0.3328    5.7169 C   0  0  0  0  0  0  0  0  0  0  0  0
    7.4262   -0.8983    4.4987 C   0  0  0  0  0  0  0  0  0  0  0  0
    7.3065   -6.5335    7.9630 C   0  0  0  0  0  0  0  0  0  0  0  0
    8.5213   -6.6163    5.8823 C   0  0  0  0  0  0  0  0  0  0  0  0
    4.0793   -4.2922    4.3084 C   0  0  0  0  0  0  0  0  0  0  0  0
    3.3646   -4.2716    6.6084 C   0  0  0  0  0  0  0  0  0  0  0  0
    5.1097    0.4748    4.4275 C   0  0  0  0  0  0  0  0  0  0  0  0
    7.5196    0.5639    4.0485 C   0  0  0  0  0  0  0  0  0  0  0  0
    7.9342   -7.2789    6.9607 C   0  0  0  0  0  0  0  0  0  0  0  0
    3.1568   -4.6538    5.2859 C   0  0  0  0  0  0  0  0  0  0  0  0
    6.2626    1.3314    4.1388 N   0  0  0  0  0  0  0  0  0  0  0  0
    7.8948   -8.6322    7.1455 O   0  0  0  0  0  0  0  0  0  0  0  0
    6.4128    2.5111    5.0130 C   0  0  0  0  0  0  0  0  0  0  0  0
    6.6723   -9.2894    6.8360 C   0  0  0  0  0  0  0  0  0  0  0  0
    5.1608    3.4097    5.1555 C   0  0  0  0  0  0  0  0  0  0  0  0
    4.2035    2.7142    5.9777 O   0  0  0  0  0  0  0  0  0  0  0  0
    4.4971    3.7270    3.8079 C   0  0  0  0  0  0  0  0  0  0  0  0
    5.5289    3.8689    2.8211 O   0  0  0  0  0  0  0  0  0  0  0  0
    5.9618    5.1360    2.5486 C   0  0  0  0  0  0  0  0  0  0  0  0
    7.2881    5.5544    2.4671 C   0  0  0  0  0  0  0  0  0  0  0  0
    4.9418    6.0674    2.3411 C   0  0  0  0  0  0  0  0  0  0  0  0
    7.5815    6.8954    2.1920 C   0  0  0  0  0  0  0  0  0  0  0  0
    5.2354    7.4074    2.0635 C   0  0  0  0  0  0  0  0  0  0  0  0
    6.5616    7.8286    1.9917 C   0  0  0  0  0  0  0  0  0  0  0  0
    6.9906    9.1017    1.7361 O   0  0  0  0  0  0  0  0  0  0  0  0
    6.3650    9.7821    0.6559 C   0  0  0  0  0  0  0  0  0  0  0  0
  1  2  2  0
  2  3  1  0
  2  4  1  0
  3  5  1  0
  3  6  1  0
  4  7  4  0
  4  8  4  0
  5  9  4  0
  5 10  4  0
  6 11  1  0
  6 12  1  0
  7 13  4  0
  8 14  4  0
  9 15  4  0
 10 16  4  0
 11 17  1  0
 12 18  1  0
 13 19  4  0
 15 20  4  0
 17 21  1  0
 19 22  1  0
 21 23  1  0
 22 24  1  0
 23 25  1  0
 25 26  1  0
 25 27  1  0
 27 28  1  0
 28 29  1  0
 29 30  4  0
 29 31  4  0
 30 32  4  0
 31 33  4  0
 32 34  4  0
 34 35  1  0
 35 36  1  0
 14 19  4  0
 16 20  4  0
 18 21  1  0
 33 34  4  0
M  END
