
     RDKit          3D

 27 31  0  0  0  0  0  0  0  0999 V2000
    9.8022   -0.3933   -0.5798 O   0  0  0  0  0  0  0  0  0  0  0  0
    9.4789    0.1947    0.4446 C   0  0  0  0  0  0  0  0  0  0  0  0
    8.2350   -0.1482    1.1651 C   0  0  0  0  0  0  0  0  0  0  0  0
   10.3079    1.2875    0.9931 C   0  0  0  0  0  0  0  0  0  0  0  0
    7.8974    0.4734    2.3065 C   0  0  0  0  0  0  0  0  0  0  0  0
    9.9789    1.8880    2.1449 C   0  0  0  0  0  0  0  0  0  0  0  0
    6.6541    0.1576    2.9794 C   0  0  0  0  0  0  0  0  0  0  0  0
    8.7711    1.5146    2.9939 C   0  0  1  0  0  0  0  0  0  0  0  0
    6.0746    0.9946    3.8605 C   0  0  0  0  0  0  0  0  0  0  0  0
    7.8988    2.7671    3.3293 C   0  0  0  0  0  0  0  0  0  0  0  0
    9.3661    0.9159    4.2966 C   0  0  0  0  0  0  0  0  0  0  0  0
    4.9251    0.4700    4.6249 C   0  0  0  0  0  0  0  0  0  0  0  0
    6.5969    2.4043    4.1640 C   0  0  1  0  0  0  0  0  0  0  0  0
    7.5391    3.6321    2.0902 C   0  0  0  0  0  0  0  0  0  0  0  0
    4.0435   -0.4575    4.0495 C   0  0  0  0  0  0  0  0  0  0  0  0
    4.7063    0.8838    5.9458 C   0  0  0  0  0  0  0  0  0  0  0  0
    5.5024    3.4749    3.8993 C   0  0  0  0  0  0  0  0  0  0  0  0
    6.9018    4.9822    2.4735 C   0  0  0  0  0  0  0  0  0  0  0  0
    2.9592   -0.9513    4.7778 C   0  0  0  0  0  0  0  0  0  0  0  0
    3.6216    0.3881    6.6730 C   0  0  0  0  0  0  0  0  0  0  0  0
    6.0755    4.9024    3.7597 C   0  0  1  0  0  0  0  0  0  0  0  0
    4.3521    3.6482    4.8957 C   0  0  0  0  0  0  0  0  0  0  0  0
    2.7484   -0.5273    6.0884 C   0  0  0  0  0  0  0  0  0  0  0  0
    4.7713    5.6829    3.7298 C   0  0  0  0  0  0  0  0  0  0  0  0
    6.8497    5.4342    4.9809 C   0  0  0  0  0  0  0  0  0  0  0  0
    3.6555    4.9286    4.4190 C   0  0  0  0  0  0  0  0  0  0  0  0
    4.6386    6.7976    3.2416 O   0  0  0  0  0  0  0  0  0  0  0  0
  1  2  2  0
  2  3  1  0
  2  4  1  0
  3  5  2  0
  4  6  2  0
  5  7  1  0
  5  8  1  0
  7  9  2  0
  8 10  1  0
  8 11  1  1
  9 12  1  0
 13  9  1  0
 10 14  1  0
 12 15  4  0
 12 16  4  0
 13 17  1  6
 14 18  1  0
 15 19  4  0
 16 20  4  0
 17 21  1  0
 17 22  1  0
 19 23  4  0
 21 24  1  0
 21 25  1  1
 22 26  1  0
 24 27  2  0
  6  8  1  0
 10 13  1  0
 18 21  1  0
 20 23  4  0
 24 26  1  0
M  END
