
     RDKit          3D

 14 15  0  0  0  0  0  0  0  0999 V2000
    5.9726    5.9104    2.3133 O   0  0  0  0  0  0  0  0  0  0  0  0
    7.2459    5.5482    1.9700 C   0  0  0  0  0  0  0  0  0  0  0  0
    5.7159    7.1176    1.7330 C   0  0  0  0  0  0  0  0  0  0  0  0
    7.7167    4.2733    2.4956 C   0  0  0  0  0  0  0  0  0  0  0  0
    7.7982    6.5287    1.1679 C   0  0  0  0  0  0  0  0  0  0  0  0
    6.8147    7.5360    1.0144 C   0  0  0  0  0  0  0  0  0  0  0  0
    4.3694    7.7022    1.9736 C   0  0  0  0  0  0  0  0  0  0  0  0
    6.9413    3.4959    3.3545 C   0  0  0  0  0  0  0  0  0  0  0  0
    8.9766    3.7648    2.1621 C   0  0  0  0  0  0  0  0  0  0  0  0
    3.3304    6.7247    1.6425 N   0  0  0  0  0  0  0  0  0  0  0  0
    7.3234    2.3017    3.8770 N   0  0  0  0  0  0  0  0  0  0  0  0
    9.3996    2.5410    2.6813 C   0  0  0  0  0  0  0  0  0  0  0  0
    2.9913    6.7867    0.2285 C   0  0  0  0  0  0  0  0  0  0  0  0
    8.5456    1.8535    3.5263 C   0  0  0  0  0  0  0  0  0  0  0  0
  1  2  4  0
  1  3  4  0
  2  4  1  0
  2  5  4  0
  3  6  4  0
  3  7  1  0
  4  8  4  0
  4  9  4  0
  7 10  1  0
  8 11  4  0
  9 12  4  0
 10 13  1  0
 11 14  4  0
  5  6  4  0
 12 14  4  0
M  END
