
     RDKit          3D

 20 23  0  0  0  0  0  0  0  0999 V2000
    4.5328    8.1213    1.5329 O   0  0  0  0  0  0  0  0  0  0  0  0
    5.0003    7.1387    2.0938 C   0  0  0  0  0  0  0  0  0  0  0  0
    6.3818    7.1346    2.6194 C   0  0  0  0  0  0  0  0  0  0  0  0
    4.2315    5.8822    2.2144 C   0  0  0  0  0  0  0  0  0  0  0  0
    6.8455    6.1019    3.3451 C   0  0  0  0  0  0  0  0  0  0  0  0
    4.6895    4.8619    2.9540 C   0  0  0  0  0  0  0  0  0  0  0  0
    5.9728    4.9050    3.7678 C   0  0  1  0  0  0  0  0  0  0  0  0
    8.3206    5.9729    3.6432 C   0  0  0  0  0  0  0  0  0  0  0  0
    6.8431    3.5988    3.6560 C   0  0  2  0  0  0  0  0  0  0  0  0
    5.5460    5.0991    5.2412 C   0  0  0  0  0  0  0  0  0  0  0  0
    8.9245    4.7857    2.8652 C   0  0  0  0  0  0  0  0  0  0  0  0
    7.8691    3.7240    2.4946 C   0  0  1  0  0  0  0  0  0  0  0  0
    6.0917    2.2560    3.5964 C   0  0  0  0  0  0  0  0  0  0  0  0
    8.3896    2.3540    2.0460 C   0  0  2  0  0  0  0  0  0  0  0  0
    7.0354    1.0355    3.7148 C   0  0  0  0  0  0  0  0  0  0  0  0
    8.4519    1.2842    3.1493 C   0  0  1  0  0  0  0  0  0  0  0  0
    9.7273    2.2421    1.3244 C   0  0  0  0  0  0  0  0  0  0  0  0
    9.0221    0.1044    2.3370 C   0  0  0  0  0  0  0  0  0  0  0  0
    9.4368    1.5933    4.3001 C   0  0  0  0  0  0  0  0  0  0  0  0
   10.0541    0.7410    1.3881 C   0  0  0  0  0  0  0  0  0  0  0  0
  1  2  2  0
  2  3  1  0
  2  4  1  0
  3  5  2  0
  4  6  2  0
  5  7  1  0
  5  8  1  0
  7  9  1  0
  7 10  1  1
  8 11  1  0
  9 12  1  0
  9 13  1  6
 12 14  1  0
 13 15  1  0
 14 16  1  0
 14 17  1  1
 16 18  1  0
 16 19  1  1
 17 20  1  0
  6  7  1  0
 12 11  1  1
 15 16  1  0
 18 20  1  0
M  END
