
     RDKit          3D

 26 29  0  0  0  0  0  0  0  0999 V2000
   11.3848    2.0055    3.4874 Br  0  0  0  0  0  0  0  0  0  0  0  0
   10.0462    1.8045    2.0950 C   0  0  1  0  0  0  0  0  0  0  0  0
    9.1889    0.5767    2.3005 C   0  0  0  0  0  0  0  0  0  0  0  0
    9.2077    3.0676    1.9129 C   0  0  0  0  0  0  0  0  0  0  0  0
    9.3307   -0.4342    1.4192 C   0  0  0  0  0  0  0  0  0  0  0  0
    8.0422    0.6436    3.3340 C   0  0  1  0  0  0  0  0  0  0  0  0
    8.0335    3.2037    2.9002 C   0  0  2  0  0  0  0  0  0  0  0  0
    8.3030   -1.4898    1.2684 C   0  0  0  0  0  0  0  0  0  0  0  0
    7.1687    1.8939    2.9511 C   0  0  0  0  0  0  0  0  0  0  0  0
    7.2347   -0.6947    3.3272 C   0  0  0  0  0  0  0  0  0  0  0  0
    8.5671    0.7495    4.7898 C   0  0  0  0  0  0  0  0  0  0  0  0
    7.1265    4.3798    2.5165 C   0  0  0  0  0  0  0  0  0  0  0  0
    8.5178   -2.4469    0.5309 O   0  0  0  0  0  0  0  0  0  0  0  0
    6.9795   -1.2612    1.9447 C   0  0  0  0  0  0  0  0  0  0  0  0
    5.9010    2.0776    3.8278 C   0  0  0  0  0  0  0  0  0  0  0  0
    5.9750    4.6032    3.5166 C   0  0  2  0  0  0  0  0  0  0  0  0
    7.7457    5.7667    2.3685 C   0  0  0  0  0  0  0  0  0  0  0  0
    5.0950    3.3474    3.5017 C   0  0  0  0  0  0  0  0  0  0  0  0
    5.3328    5.8622    2.8870 C   0  0  2  0  0  0  0  0  0  0  0  0
    6.4281    4.8980    4.9690 C   0  0  0  0  0  0  0  0  0  0  0  0
    6.5488    6.7248    2.4816 C   0  0  0  0  0  0  0  0  0  0  0  0
    4.5107    6.6039    3.7940 O   0  0  0  0  0  0  0  0  0  0  0  0
    3.1742    6.3126    3.7761 C   0  0  0  0  0  0  0  0  0  0  0  0
    2.5181    6.1384    2.7602 O   0  0  0  0  0  0  0  0  0  0  0  0
    2.6780    6.2715    5.1983 C   0  0  0  0  0  0  0  0  0  0  0  0
    3.1052    4.5635    6.0174 Br  0  0  0  0  0  0  0  0  0  0  0  0
  2  1  1  1
  2  3  1  0
  2  4  1  0
  3  5  2  0
  3  6  1  0
  7  4  1  6
  5  8  1  0
  6  9  1  0
  6 10  1  0
  6 11  1  1
  7 12  1  0
  8 13  2  0
  8 14  1  0
  9 15  1  0
 12 16  1  0
 12 17  1  0
 15 18  1  0
 16 19  1  0
 16 20  1  1
 17 21  1  0
 19 22  1  1
 22 23  1  0
 23 24  2  0
 23 25  1  0
 25 26  1  0
  7  9  1  0
 10 14  1  0
 16 18  1  0
 19 21  1  0
M  END
