
     RDKit          3D

 22 25  0  0  0  0  0  0  0  0999 V2000
    4.3210    8.3659    1.5382 O   0  0  0  0  0  0  0  0  0  0  0  0
    4.7516    7.4131    2.1866 C   0  0  0  0  0  0  0  0  0  0  0  0
    6.2090    7.2426    2.3757 C   0  0  0  0  0  0  0  0  0  0  0  0
    3.8278    6.4192    2.8745 C   0  0  1  0  0  0  0  0  0  0  0  0
    6.7160    6.1532    2.9811 C   0  0  0  0  0  0  0  0  0  0  0  0
    2.5553    6.3819    2.2355 O   0  0  0  0  0  0  0  0  0  0  0  0
    4.4435    5.0289    2.8255 C   0  0  0  0  0  0  0  0  0  0  0  0
    5.8689    4.9580    3.4481 C   0  0  1  0  0  0  0  0  0  0  0  0
    8.2022    6.0741    3.2438 C   0  0  0  0  0  0  0  0  0  0  0  0
    6.5526    3.6183    2.9733 C   0  0  1  0  0  0  0  0  0  0  0  0
    5.7436    5.0288    4.9871 C   0  0  0  0  0  0  0  0  0  0  0  0
    8.8034    4.7695    2.7361 C   0  0  0  0  0  0  0  0  0  0  0  0
    8.0747    3.5560    3.3254 C   0  0  2  0  0  0  0  0  0  0  0  0
    5.7976    2.3325    3.4162 C   0  0  0  0  0  0  0  0  0  0  0  0
    8.6401    2.2395    2.7854 C   0  0  2  0  0  0  0  0  0  0  0  0
    6.4917    1.0243    2.9940 C   0  0  0  0  0  0  0  0  0  0  0  0
    7.9536    1.0172    3.4278 C   0  0  1  0  0  0  0  0  0  0  0  0
   10.1299    1.9407    2.9138 C   0  0  0  0  0  0  0  0  0  0  0  0
    8.8337   -0.0674    2.8331 C   0  0  0  0  0  0  0  0  0  0  0  0
    8.0838    0.8983    4.9576 C   0  0  0  0  0  0  0  0  0  0  0  0
   10.2169    0.4646    2.4979 C   0  0  0  0  0  0  0  0  0  0  0  0
    8.4907   -1.2302    2.6677 O   0  0  0  0  0  0  0  0  0  0  0  0
  1  2  2  0
  2  3  1  0
  2  4  1  0
  3  5  2  0
  4  6  1  6
  4  7  1  0
  5  8  1  0
  5  9  1  0
  8 10  1  0
  8 11  1  1
  9 12  1  0
 10 13  1  0
 10 14  1  1
 13 15  1  0
 14 16  1  0
 15 17  1  0
 15 18  1  1
 17 19  1  0
 17 20  1  1
 18 21  1  0
 19 22  2  0
  7  8  1  0
 13 12  1  6
 16 17  1  0
 19 21  1  0
M  END
