
     RDKit          3D

 24 26  0  0  0  0  0  0  0  0999 V2000
    7.7108    5.0868    4.1660 O   0  0  0  0  0  0  0  0  0  0  0  0
    6.6784    4.6020    3.2930 C   0  0  0  0  0  0  0  0  0  0  0  0
    8.6540    5.9276    3.5054 C   0  0  0  0  0  0  0  0  0  0  0  0
    5.3478    5.3165    3.5100 C   0  0  0  0  0  0  0  0  0  0  0  0
    6.5235    3.0539    3.4477 C   0  0  2  0  0  0  0  0  0  0  0  0
    8.0412    7.0088    2.8177 O   0  0  0  0  0  0  0  0  0  0  0  0
    5.0627    6.0015    4.7014 C   0  0  0  0  0  0  0  0  0  0  0  0
    4.3685    5.2798    2.5045 C   0  0  0  0  0  0  0  0  0  0  0  0
    5.5463    2.6177    4.5416 C   0  0  0  0  0  0  0  0  0  0  0  0
    7.8810    2.3599    3.6708 C   0  0  0  0  0  0  0  0  0  0  0  0
    8.1250    6.8642    1.4074 C   0  0  0  0  0  0  0  0  0  0  0  0
    3.8311    6.6323    4.8827 C   0  0  0  0  0  0  0  0  0  0  0  0
    3.1382    5.9138    2.6867 C   0  0  0  0  0  0  0  0  0  0  0  0
    4.9306    3.5437    5.3985 C   0  0  0  0  0  0  0  0  0  0  0  0
    5.2502    1.2546    4.7048 C   0  0  0  0  0  0  0  0  0  0  0  0
    8.1927    1.3920    2.6398 N   0  0  0  0  0  0  0  0  0  0  0  0
    2.8698    6.5888    3.8755 C   0  0  0  0  0  0  0  0  0  0  0  0
    4.0483    3.1174    6.3929 C   0  0  0  0  0  0  0  0  0  0  0  0
    4.3669    0.8309    5.6993 C   0  0  0  0  0  0  0  0  0  0  0  0
    7.4362    0.2966    2.4716 N   0  0  0  0  0  0  0  0  0  0  0  0
    9.1993    1.4449    1.7218 C   0  0  0  0  0  0  0  0  0  0  0  0
    3.7679    1.7618    6.5442 C   0  0  0  0  0  0  0  0  0  0  0  0
    7.9477   -0.3895    1.4582 N   0  0  0  0  0  0  0  0  0  0  0  0
    9.0269    0.2995    0.9838 C   0  0  0  0  0  0  0  0  0  0  0  0
  2  1  1  0
  1  3  1  0
  2  4  1  0
  2  5  1  0
  3  6  1  0
  4  7  4  0
  4  8  4  0
  5  9  1  0
  5 10  1  1
  6 11  1  0
  7 12  4  0
  8 13  4  0
  9 14  4  0
  9 15  4  0
 10 16  1  0
 12 17  4  0
 14 18  4  0
 15 19  4  0
 16 20  4  0
 16 21  4  0
 18 22  4  0
 20 23  4  0
 21 24  4  0
 13 17  4  0
 19 22  4  0
 23 24  4  0
M  END
