
     RDKit          3D

 21 23  0  0  0  0  0  0  0  0999 V2000
    5.2231    3.4383    5.4702 O   0  0  0  0  0  0  0  0  0  0  0  0
    4.9927    3.7158    4.0859 C   0  0  0  0  0  0  0  0  0  0  0  0
    4.3987    5.0979    3.8815 C   0  0  0  0  0  0  0  0  0  0  0  0
    6.2492    3.4199    3.2242 C   0  0  0  0  0  0  0  0  0  0  0  0
    4.2193    5.5939    2.5803 C   0  0  0  0  0  0  0  0  0  0  0  0
    4.0408    5.9146    4.9652 C   0  0  0  0  0  0  0  0  0  0  0  0
    7.1348    4.6346    2.9492 C   0  0  0  0  0  0  0  0  0  0  0  0
    7.0609    2.2788    3.8662 C   0  0  0  0  0  0  0  0  0  0  0  0
    3.6848    6.8665    2.3703 C   0  0  0  0  0  0  0  0  0  0  0  0
    3.5084    7.1875    4.7535 C   0  0  0  0  0  0  0  0  0  0  0  0
    7.8930    5.1873    3.9935 C   0  0  0  0  0  0  0  0  0  0  0  0
    7.2043    5.2350    1.6821 C   0  0  0  0  0  0  0  0  0  0  0  0
    8.2155    1.9097    3.0726 N   0  0  0  0  0  0  0  0  0  0  0  0
    3.3283    7.6620    3.4566 C   0  0  0  0  0  0  0  0  0  0  0  0
    8.6992    6.3058    3.7752 C   0  0  0  0  0  0  0  0  0  0  0  0
    8.0114    6.3535    1.4658 C   0  0  0  0  0  0  0  0  0  0  0  0
    8.1362    0.8902    2.1986 N   0  0  0  0  0  0  0  0  0  0  0  0
    9.4614    2.4586    3.0847 C   0  0  0  0  0  0  0  0  0  0  0  0
    8.7582    6.8887    2.5120 C   0  0  0  0  0  0  0  0  0  0  0  0
    9.3246    0.7710    1.6209 N   0  0  0  0  0  0  0  0  0  0  0  0
   10.1486    1.7242    2.1495 C   0  0  0  0  0  0  0  0  0  0  0  0
  2  1  1  0
  2  3  1  0
  2  4  1  0
  3  5  4  0
  3  6  4  0
  4  7  1  0
  4  8  1  0
  5  9  4  0
  6 10  4  0
  7 11  4  0
  7 12  4  0
  8 13  1  0
  9 14  4  0
 11 15  4  0
 12 16  4  0
 13 17  4  0
 13 18  4  0
 15 19  4  0
 17 20  4  0
 18 21  4  0
 10 14  4  0
 16 19  4  0
 20 21  4  0
M  END
