
     RDKit          3D

 21 24  0  0  0  0  0  0  0  0999 V2000
    6.1350    8.4399    2.4518 F   0  0  0  0  0  0  0  0  0  0  0  0
    5.4694    7.2829    2.6404 C   0  0  0  0  0  0  0  0  0  0  0  0
    4.0000    7.4031    2.8066 C   0  0  0  0  0  0  0  0  0  0  0  0
    6.0914    6.0954    2.5955 C   0  0  0  0  0  0  0  0  0  0  0  0
    3.4573    8.4990    2.9227 O   0  0  0  0  0  0  0  0  0  0  0  0
    3.2040    6.1230    2.7316 C   0  0  0  0  0  0  0  0  0  0  0  0
    5.3781    4.7803    2.8145 C   0  0  2  0  0  0  0  0  0  0  0  0
    7.5482    5.9882    2.2539 C   0  0  0  0  0  0  0  0  0  0  0  0
    3.9608    4.9845    3.3995 C   0  0  0  0  0  0  0  0  0  0  0  0
    6.1658    3.7549    3.7072 C   0  0  2  0  0  0  0  0  0  0  0  0
    8.2704    5.2503    3.3612 C   0  0  0  0  0  0  0  0  0  0  0  0
    7.7242    3.8425    3.6079 C   0  0  2  0  0  0  0  0  0  0  0  0
    5.6135    2.3226    3.3879 C   0  0  0  0  0  0  0  0  0  0  0  0
    8.1831    2.7713    2.6242 C   0  0  2  0  0  0  0  0  0  0  0  0
    6.5455    1.1355    3.6677 C   0  0  0  0  0  0  0  0  0  0  0  0
    8.0078    1.3750    3.2710 C   0  0  1  0  0  0  0  0  0  0  0  0
    9.5912    2.7409    2.0463 C   0  0  0  0  0  0  0  0  0  0  0  0
    8.5918    0.5612    2.1273 C   0  0  0  0  0  0  0  0  0  0  0  0
    8.9101    1.0646    4.4877 C   0  0  0  0  0  0  0  0  0  0  0  0
    9.6300    1.3662    1.3556 C   0  0  0  0  0  0  0  0  0  0  0  0
    8.3001   -0.5989    1.8712 O   0  0  0  0  0  0  0  0  0  0  0  0
  1  2  1  0
  2  3  1  0
  2  4  2  0
  3  5  2  0
  3  6  1  0
  4  7  1  0
  4  8  1  0
  6  9  1  0
  7 10  1  0
  8 11  1  0
 10 12  1  0
 10 13  1  6
 12 14  1  0
 13 15  1  0
 14 16  1  0
 14 17  1  1
 16 18  1  0
 16 19  1  1
 17 20  1  0
 18 21  2  0
  7  9  1  1
 12 11  1  6
 15 16  1  0
 18 20  1  0
M  END
