
     RDKit          3D

 31 35  0  0  0  0  0  0  0  0999 V2000
    4.6550    6.5148    2.3501 F   0  0  0  0  0  0  0  0  0  0  0  0
    4.8620    5.4010    3.0648 C   0  0  0  0  0  0  0  0  0  0  0  0
    6.0015    4.6409    2.8335 C   0  0  0  0  0  0  0  0  0  0  0  0
    3.9335    5.0224    4.0258 C   0  0  0  0  0  0  0  0  0  0  0  0
    6.2187    3.4796    3.5771 C   0  0  0  0  0  0  0  0  0  0  0  0
    4.1481    3.8615    4.7700 C   0  0  0  0  0  0  0  0  0  0  0  0
    5.2925    3.0752    4.5530 C   0  0  0  0  0  0  0  0  0  0  0  0
    5.5137    1.8200    5.3664 C   0  0  0  0  0  0  0  0  0  0  0  0
    5.3188    0.6111    4.5849 N   0  0  0  0  0  0  0  0  0  0  0  0
    6.1784    0.1315    3.6208 C   0  0  0  0  0  0  0  0  0  0  0  0
    4.2176   -0.2164    4.6253 C   0  0  0  0  0  0  0  0  0  0  0  0
    5.7094   -0.9639    3.0711 N   0  0  0  0  0  0  0  0  0  0  0  0
    7.3507    0.7692    3.3529 N   0  0  0  0  0  0  0  0  0  0  0  0
    4.5005   -1.1936    3.6749 C   0  0  0  0  0  0  0  0  0  0  0  0
    3.0340   -0.2149    5.3754 C   0  0  0  0  0  0  0  0  0  0  0  0
    8.2130    0.9990    4.5210 C   0  0  0  0  0  0  0  0  0  0  0  0
    8.0998    0.2748    2.1873 C   0  0  0  0  0  0  0  0  0  0  0  0
    3.5791   -2.2280    3.4526 C   0  0  0  0  0  0  0  0  0  0  0  0
    2.1267   -1.2544    5.1388 C   0  0  0  0  0  0  0  0  0  0  0  0
    9.0914   -0.2077    4.8594 C   0  0  0  0  0  0  0  0  0  0  0  0
    8.8663   -1.0041    2.4989 C   0  0  0  0  0  0  0  0  0  0  0  0
    2.3923   -2.2470    4.1944 C   0  0  0  0  0  0  0  0  0  0  0  0
    9.8615   -0.8296    3.6646 C   0  0  0  0  0  0  0  0  0  0  0  0
   11.1314   -0.1865    3.1728 N   0  0  0  0  0  0  0  0  0  0  0  0
   12.3355   -1.0193    3.5266 C   0  0  0  0  0  0  0  0  0  0  0  0
   11.3069    1.1919    3.6365 C   0  0  0  0  0  0  0  0  0  0  0  0
   12.2342   -2.5278    3.1696 C   0  0  0  0  0  0  0  0  0  0  0  0
   12.6974   -0.9624    5.0317 C   0  0  0  0  0  0  0  0  0  0  0  0
   11.1889   -3.2636    4.0068 C   0  0  0  0  0  0  0  0  0  0  0  0
   11.6711   -1.6795    5.9133 C   0  0  0  0  0  0  0  0  0  0  0  0
   11.4901   -3.1358    5.4965 C   0  0  0  0  0  0  0  0  0  0  0  0
  1  2  1  0
  2  3  4  0
  2  4  4  0
  3  5  4  0
  4  6  4  0
  5  7  4  0
  7  8  1  0
  8  9  1  0
  9 10  4  0
  9 11  4  0
 10 12  4  0
 10 13  1  0
 11 14  4  0
 11 15  4  0
 13 16  1  0
 13 17  1  0
 14 18  4  0
 15 19  4  0
 16 20  1  0
 17 21  1  0
 18 22  4  0
 20 23  1  0
 23 24  1  0
 24 25  1  0
 24 26  1  0
 25 27  1  0
 25 28  1  0
 27 29  1  0
 28 30  1  0
 29 31  1  0
  6  7  4  0
 12 14  4  0
 19 22  4  0
 21 23  1  0
 30 31  1  0
M  END
