
     RDKit          3D

 28 31  0  0  0  0  0  0  0  0999 V2000
    2.2490    0.5140    1.2518 O   0  0  0  0  0  0  0  0  0  0  0  0
    3.1861    0.2268    1.9862 C   0  0  0  0  0  0  0  0  0  0  0  0
    4.1946    1.2337    2.3710 C   0  0  0  0  0  0  0  0  0  0  0  0
    3.3664   -1.1429    2.4918 C   0  0  0  0  0  0  0  0  0  0  0  0
    5.2034    0.9702    3.2224 C   0  0  0  0  0  0  0  0  0  0  0  0
    4.3495   -1.4264    3.3542 C   0  0  0  0  0  0  0  0  0  0  0  0
    6.2701    1.9545    3.4917 C   0  0  0  0  0  0  0  0  0  0  0  0
    5.3403   -0.4121    3.9140 C   0  0  1  0  0  0  0  0  0  0  0  0
    7.4519    1.5521    4.0033 C   0  0  0  0  0  0  0  0  0  0  0  0
    6.0444    3.4459    3.2758 C   0  0  0  0  0  0  0  0  0  0  0  0
    6.8136   -0.8812    3.6820 C   0  0  1  0  0  0  0  0  0  0  0  0
    4.9827   -0.2753    5.4132 C   0  0  0  0  0  0  0  0  0  0  0  0
    7.8126    0.1291    4.3293 C   0  0  1  0  0  0  0  0  0  0  0  0
    7.2935    4.2263    2.8299 C   0  0  0  0  0  0  0  0  0  0  0  0
    7.1580   -2.3365    4.0955 C   0  0  0  0  0  0  0  0  0  0  0  0
    9.2205   -0.2801    3.8865 C   0  0  2  0  0  0  0  0  0  0  0  0
    7.0932    5.7342    2.6585 C   0  0  0  0  0  0  0  0  0  0  0  0
    8.6324   -2.7014    3.8187 C   0  0  0  0  0  0  0  0  0  0  0  0
    9.5836   -1.6798    4.4368 C   0  0  1  0  0  0  0  0  0  0  0  0
   10.4309    0.5786    4.2395 C   0  0  0  0  0  0  0  0  0  0  0  0
    5.9259    6.0717    1.7270 C   0  0  0  0  0  0  0  0  0  0  0  0
   11.0290   -1.7235    3.9762 C   0  0  0  0  0  0  0  0  0  0  0  0
    9.6139   -1.8193    5.9714 C   0  0  0  0  0  0  0  0  0  0  0  0
   11.6110   -0.3253    3.8496 C   0  0  0  0  0  0  0  0  0  0  0  0
    4.6681    6.4262    2.5223 C   0  0  0  0  0  0  0  0  0  0  0  0
   11.6604   -2.7493    3.7614 O   0  0  0  0  0  0  0  0  0  0  0  0
    3.7947    7.4254    1.7643 C   0  0  0  0  0  0  0  0  0  0  0  0
    3.2498    6.8254    0.4781 C   0  0  0  0  0  0  0  0  0  0  0  0
  1  2  2  0
  2  3  1  0
  2  4  1  0
  3  5  2  0
  4  6  2  0
  5  7  1  0
  5  8  1  0
  7  9  2  0
  7 10  1  0
  8 11  1  0
  8 12  1  1
 13  9  1  6
 10 14  1  0
 11 15  1  1
 13 16  1  0
 14 17  1  0
 15 18  1  0
 16 19  1  0
 16 20  1  1
 17 21  1  0
 19 22  1  0
 19 23  1  1
 20 24  1  0
 21 25  1  0
 22 26  2  0
 25 27  1  0
 27 28  1  0
  6  8  1  0
 11 13  1  0
 18 19  1  0
 22 24  1  0
M  END
