
     RDKit          3D

 31 35  0  0  0  0  0  0  0  0999 V2000
   10.1522    0.0934   -0.3470 O   0  0  0  0  0  0  0  0  0  0  0  0
    9.7123   -0.1146    0.7811 C   0  0  0  0  0  0  0  0  0  0  0  0
    8.6683    0.7801    1.3293 C   0  0  0  0  0  0  0  0  0  0  0  0
   10.2496   -1.2042    1.6675 C   0  0  0  0  0  0  0  0  0  0  0  0
    8.1515    0.6207    2.5642 C   0  0  0  0  0  0  0  0  0  0  0  0
    9.1703   -1.6912    2.6236 C   0  0  0  0  0  0  0  0  0  0  0  0
    8.5342   -0.5538    3.4831 C   0  0  2  0  0  0  0  0  0  0  0  0
    7.1414    1.6527    3.0575 C   0  0  0  0  0  0  0  0  0  0  0  0
    7.2530   -1.1365    4.1909 C   0  0  2  0  0  0  0  0  0  0  0  0
    9.5884   -0.0757    4.5078 C   0  0  0  0  0  0  0  0  0  0  0  0
    5.9434    0.9798    3.7391 C   0  0  0  0  0  0  0  0  0  0  0  0
    7.8253    2.7410    3.9178 C   0  0  0  0  0  0  0  0  0  0  0  0
    6.3552   -0.0251    4.8208 C   0  0  1  0  0  0  0  0  0  0  0  0
    7.5566   -2.2865    5.1948 C   0  0  0  0  0  0  0  0  0  0  0  0
    8.4325    3.8714    3.0772 C   0  0  0  0  0  0  0  0  0  0  0  0
    5.1316   -0.6975    5.4534 C   0  0  1  0  0  0  0  0  0  0  0  0
    6.3149   -2.8182    5.9335 C   0  0  0  0  0  0  0  0  0  0  0  0
    7.5240    5.1027    2.9626 C   0  0  0  0  0  0  0  0  0  0  0  0
    5.5321   -1.6776    6.5739 C   0  0  2  0  0  0  0  0  0  0  0  0
    4.0320    0.1546    6.0801 C   0  0  0  0  0  0  0  0  0  0  0  0
    6.0460    4.8083    2.6714 C   0  0  0  0  0  0  0  0  0  0  0  0
    4.1415   -2.0132    7.0825 C   0  0  0  0  0  0  0  0  0  0  0  0
    6.2993   -1.0657    7.7601 C   0  0  0  0  0  0  0  0  0  0  0  0
    3.1604   -0.8890    6.7939 C   0  0  0  0  0  0  0  0  0  0  0  0
    5.1432    6.0114    2.7984 C   0  0  0  0  0  0  0  0  0  0  0  0
    3.8458   -3.0436    7.6738 O   0  0  0  0  0  0  0  0  0  0  0  0
    3.9624    5.9416    3.5507 C   0  0  0  0  0  0  0  0  0  0  0  0
    5.4693    7.2160    2.1588 C   0  0  0  0  0  0  0  0  0  0  0  0
    3.1218    7.0517    3.6555 C   0  0  0  0  0  0  0  0  0  0  0  0
    4.6265    8.3243    2.2633 C   0  0  0  0  0  0  0  0  0  0  0  0
    3.4532    8.2418    3.0101 C   0  0  0  0  0  0  0  0  0  0  0  0
  1  2  2  0
  2  3  1  0
  2  4  1  0
  3  5  2  0
  4  6  1  0
  5  7  1  0
  5  8  1  0
  7  9  1  0
  7 10  1  1
  8 11  1  0
  8 12  1  0
  9 13  1  0
  9 14  1  1
 12 15  1  0
 13 16  1  0
 14 17  1  0
 15 18  1  0
 16 19  1  0
 16 20  1  1
 18 21  1  0
 19 22  1  0
 19 23  1  1
 20 24  1  0
 21 25  1  0
 22 26  2  0
 25 27  4  0
 25 28  4  0
 27 29  4  0
 28 30  4  0
 29 31  4  0
  6  7  1  0
 13 11  1  6
 17 19  1  0
 22 24  1  0
 30 31  4  0
M  END
