
     RDKit          3D

 21 24  0  0  0  0  0  0  0  0999 V2000
    6.9358   -0.5527    0.4651 O   0  0  0  0  0  0  0  0  0  0  0  0
    6.9344    0.1771    1.4480 C   0  0  0  0  0  0  0  0  0  0  0  0
    8.0293    1.1343    1.6965 C   0  0  0  0  0  0  0  0  0  0  0  0
    5.8096    0.1781    2.4031 C   0  0  0  0  0  0  0  0  0  0  0  0
    8.0755    1.8598    2.8272 C   0  0  0  0  0  0  0  0  0  0  0  0
    5.8766    0.8737    3.5475 C   0  0  0  0  0  0  0  0  0  0  0  0
    9.0276    2.9456    2.9090 C   0  0  0  0  0  0  0  0  0  0  0  0
    7.0903    1.6814    3.9981 C   0  0  2  0  0  0  0  0  0  0  0  0
    8.6476    4.1189    3.4266 C   0  0  0  0  0  0  0  0  0  0  0  0
    6.7648    3.0583    4.7407 C   0  0  1  0  0  0  0  0  0  0  0  0
    7.7978    0.7655    5.0384 C   0  0  0  0  0  0  0  0  0  0  0  0
    7.2696    4.3314    3.9883 C   0  0  2  0  0  0  0  0  0  0  0  0
    5.3044    3.2415    5.2425 C   0  0  0  0  0  0  0  0  0  0  0  0
    6.2426    4.7271    2.9241 C   0  0  1  0  0  0  0  0  0  0  0  0
    4.3214    3.7985    4.1958 C   0  0  0  0  0  0  0  0  0  0  0  0
    4.8751    5.0681    3.5517 C   0  0  2  0  0  0  0  0  0  0  0  0
    6.5256    5.8966    1.9870 C   0  0  0  0  0  0  0  0  0  0  0  0
    4.1774    5.5551    2.2944 C   0  0  0  0  0  0  0  0  0  0  0  0
    4.8615    6.2493    4.5405 C   0  0  0  0  0  0  0  0  0  0  0  0
    5.1747    6.0948    1.2818 C   0  0  0  0  0  0  0  0  0  0  0  0
    2.9658    5.5451    2.1238 O   0  0  0  0  0  0  0  0  0  0  0  0
  1  2  2  0
  2  3  1  0
  2  4  1  0
  3  5  2  0
  4  6  2  0
  5  7  1  0
  5  8  1  0
  7  9  2  0
  8 10  1  0
  8 11  1  1
 12  9  1  6
 10 13  1  6
 12 14  1  0
 13 15  1  0
 14 16  1  0
 14 17  1  1
 16 18  1  0
 16 19  1  1
 17 20  1  0
 18 21  2  0
  6  8  1  0
 10 12  1  0
 15 16  1  0
 18 20  1  0
M  END
