
     RDKit          3D

 24 27  0  0  0  0  0  0  0  0999 V2000
    6.1465    8.3622    1.9864 S   0  0  0  0  0  0  0  0  0  0  0  0
    5.4387    6.9094    2.6385 C   0  0  0  0  0  0  0  0  0  0  0  0
    5.8226    8.1375    0.2094 C   0  0  0  0  0  0  0  0  0  0  0  0
    3.9304    6.8746    2.6609 C   0  0  0  0  0  0  0  0  0  0  0  0
    6.1629    5.8997    3.1806 C   0  0  0  0  0  0  0  0  0  0  0  0
    4.7364    9.0762   -0.2884 C   0  0  0  0  0  0  0  0  0  0  0  0
    3.2389    7.7086    2.0763 O   0  0  0  0  0  0  0  0  0  0  0  0
    3.2770    5.8023    3.4882 C   0  0  0  0  0  0  0  0  0  0  0  0
    5.5250    4.6050    3.7407 C   0  0  1  0  0  0  0  0  0  0  0  0
    7.6800    5.9464    3.3157 C   0  0  0  0  0  0  0  0  0  0  0  0
    4.0333    4.5011    3.3200 C   0  0  0  0  0  0  0  0  0  0  0  0
    6.2800    3.3457    3.1584 C   0  0  1  0  0  0  0  0  0  0  0  0
    5.5963    4.6542    5.2858 C   0  0  0  0  0  0  0  0  0  0  0  0
    8.3542    4.7239    2.7047 C   0  0  0  0  0  0  0  0  0  0  0  0
    7.8284    3.4321    3.3332 C   0  0  2  0  0  0  0  0  0  0  0  0
    5.7170    1.9820    3.6534 C   0  0  0  0  0  0  0  0  0  0  0  0
    8.4574    2.1920    2.6929 C   0  0  2  0  0  0  0  0  0  0  0  0
    6.4839    0.7580    3.1184 C   0  0  0  0  0  0  0  0  0  0  0  0
    7.9804    0.8947    3.3762 C   0  0  1  0  0  0  0  0  0  0  0  0
    9.9746    2.0485    2.6380 C   0  0  0  0  0  0  0  0  0  0  0  0
    8.8877   -0.0818    2.6499 C   0  0  0  0  0  0  0  0  0  0  0  0
    8.3047    0.7636    4.8757 C   0  0  0  0  0  0  0  0  0  0  0  0
   10.1611    0.5963    2.1732 C   0  0  0  0  0  0  0  0  0  0  0  0
    8.6441   -1.2700    2.4881 O   0  0  0  0  0  0  0  0  0  0  0  0
  1  2  1  0
  1  3  1  0
  2  4  1  0
  2  5  2  0
  3  6  1  0
  4  7  2  0
  4  8  1  0
  5  9  1  0
  5 10  1  0
  8 11  1  0
  9 12  1  0
  9 13  1  1
 10 14  1  0
 12 15  1  0
 12 16  1  1
 15 17  1  0
 16 18  1  0
 17 19  1  0
 17 20  1  1
 19 21  1  0
 19 22  1  1
 20 23  1  0
 21 24  2  0
  9 11  1  0
 15 14  1  6
 18 19  1  0
 21 23  1  0
M  END
