
     RDKit          3D

 24 27  0  0  0  0  0  0  0  0999 V2000
    3.3351    3.3715    6.5057 Br  0  0  0  0  0  0  0  0  0  0  0  0
    5.0393    4.2746    6.3311 C   0  0  0  0  0  0  0  0  0  0  0  0
    4.9214    5.2853    5.2170 C   0  0  0  0  0  0  0  0  0  0  0  0
    4.5088    6.4227    5.4845 O   0  0  0  0  0  0  0  0  0  0  0  0
    5.2653    4.9093    3.7309 C   0  0  1  0  0  0  0  0  0  0  0  0
    6.0321    6.0226    3.0103 C   0  0  0  0  0  0  0  0  0  0  0  0
    6.0197    3.4998    3.7817 C   0  0  2  0  0  0  0  0  0  0  0  0
    3.8766    4.7783    3.0164 C   0  0  0  0  0  0  0  0  0  0  0  0
    5.4349    7.0120    2.3172 C   0  0  0  0  0  0  0  0  0  0  0  0
    7.5352    5.9958    3.0623 C   0  0  0  0  0  0  0  0  0  0  0  0
    7.5815    3.5434    3.6007 C   0  0  2  0  0  0  0  0  0  0  0  0
    5.4124    2.3529    2.9229 C   0  0  0  0  0  0  0  0  0  0  0  0
    3.1181    6.0984    2.9024 C   0  0  0  0  0  0  0  0  0  0  0  0
    3.9627    7.1405    2.2244 C   0  0  0  0  0  0  0  0  0  0  0  0
    8.0479    4.6389    2.6384 C   0  0  0  0  0  0  0  0  0  0  0  0
    8.1225    2.1927    3.0989 C   0  0  2  0  0  0  0  0  0  0  0  0
    5.9810    0.9511    3.2595 C   0  0  0  0  0  0  0  0  0  0  0  0
    3.4793    8.1134    1.6534 O   0  0  0  0  0  0  0  0  0  0  0  0
    7.4310    0.9857    3.7484 C   0  0  1  0  0  0  0  0  0  0  0  0
    9.6152    1.9077    3.2438 C   0  0  0  0  0  0  0  0  0  0  0  0
    8.3374   -0.1097    3.2060 C   0  0  0  0  0  0  0  0  0  0  0  0
    7.5292    0.8994    5.2816 C   0  0  0  0  0  0  0  0  0  0  0  0
    9.7177    0.4242    2.8674 C   0  0  0  0  0  0  0  0  0  0  0  0
    8.0124   -1.2828    3.0780 O   0  0  0  0  0  0  0  0  0  0  0  0
  1  2  1  0
  2  3  1  0
  3  4  2  0
  5  3  1  1
  5  6  1  0
  5  7  1  0
  5  8  1  0
  6  9  2  0
  6 10  1  0
  7 11  1  0
  7 12  1  6
  8 13  1  0
  9 14  1  0
 10 15  1  0
 11 16  1  0
 12 17  1  0
 14 18  2  0
 16 19  1  0
 16 20  1  1
 19 21  1  0
 19 22  1  1
 20 23  1  0
 21 24  2  0
 11 15  1  6
 13 14  1  0
 17 19  1  0
 21 23  1  0
M  END
