
     RDKit          3D

 25 28  0  0  0  0  0  0  0  0999 V2000
    6.0355    7.8289    2.4479 S   0  0  0  0  0  0  0  0  0  0  0  0
    5.3755    6.3293    3.0447 C   0  0  0  0  0  0  0  0  0  0  0  0
    5.6690    7.6690    0.6721 C   0  0  0  0  0  0  0  0  0  0  0  0
    3.8714    6.2140    3.0154 C   0  0  0  0  0  0  0  0  0  0  0  0
    6.1388    5.3182    3.5281 C   0  0  0  0  0  0  0  0  0  0  0  0
    5.3358    9.0401    0.0884 C   0  0  0  0  0  0  0  0  0  0  0  0
    3.1517    7.0581    2.4819 O   0  0  0  0  0  0  0  0  0  0  0  0
    3.2529    5.0558    3.7481 C   0  0  0  0  0  0  0  0  0  0  0  0
    5.5548    3.9612    3.9921 C   0  0  1  0  0  0  0  0  0  0  0  0
    7.6502    5.4256    3.6918 C   0  0  0  0  0  0  0  0  0  0  0  0
    6.3489   10.0852    0.5322 C   0  0  0  0  0  0  0  0  0  0  0  0
    4.0812    3.8087    3.5253 C   0  0  0  0  0  0  0  0  0  0  0  0
    6.3831    2.7751    3.3565 C   0  0  1  0  0  0  0  0  0  0  0  0
    5.5884    3.9211    5.5383 C   0  0  0  0  0  0  0  0  0  0  0  0
    8.3911    4.2768    3.0192 C   0  0  0  0  0  0  0  0  0  0  0  0
    7.9220    2.9269    3.5642 C   0  0  2  0  0  0  0  0  0  0  0  0
    5.8818    1.3592    3.7645 C   0  0  0  0  0  0  0  0  0  0  0  0
    8.6214    1.7584    2.8650 C   0  0  2  0  0  0  0  0  0  0  0  0
    6.7165    0.2068    3.1748 C   0  0  0  0  0  0  0  0  0  0  0  0
    8.2003    0.4020    3.4651 C   0  0  1  0  0  0  0  0  0  0  0  0
   10.1442    1.6925    2.8262 C   0  0  0  0  0  0  0  0  0  0  0  0
    9.1652   -0.4857    2.7002 C   0  0  0  0  0  0  0  0  0  0  0  0
    8.5095    0.2009    4.9601 C   0  0  0  0  0  0  0  0  0  0  0  0
   10.4081    0.2810    2.2806 C   0  0  0  0  0  0  0  0  0  0  0  0
    8.9850   -1.6742    2.4712 O   0  0  0  0  0  0  0  0  0  0  0  0
  1  2  1  0
  1  3  1  0
  2  4  1  0
  2  5  2  0
  3  6  1  0
  4  7  2  0
  4  8  1  0
  5  9  1  0
  5 10  1  0
  6 11  1  0
  8 12  1  0
  9 13  1  0
  9 14  1  1
 10 15  1  0
 13 16  1  0
 13 17  1  1
 16 18  1  0
 17 19  1  0
 18 20  1  0
 18 21  1  1
 20 22  1  0
 20 23  1  1
 21 24  1  0
 22 25  2  0
  9 12  1  0
 16 15  1  6
 19 20  1  0
 22 24  1  0
M  END
