
     RDKit          3D

 23 26  0  0  0  0  0  0  0  0999 V2000
    4.6681    7.4094    1.3387 Br  0  0  0  0  0  0  0  0  0  0  0  0
    5.0227    6.9012    3.1759 C   0  0  1  0  0  0  0  0  0  0  0  0
    4.0934    5.7480    3.5255 C   0  0  0  0  0  0  0  0  0  0  0  0
    6.4233    6.2879    3.3204 C   0  0  0  0  0  0  0  0  0  0  0  0
    2.8704    5.8087    3.5478 O   0  0  0  0  0  0  0  0  0  0  0  0
    4.8868    4.5077    3.9064 C   0  0  2  0  0  0  0  0  0  0  0  0
    6.1723    4.7945    3.1061 C   0  0  2  0  0  0  0  0  0  0  0  0
    4.3335    3.1714    3.4241 C   0  0  0  0  0  0  0  0  0  0  0  0
    5.0306    4.5360    5.4395 C   0  0  0  0  0  0  0  0  0  0  0  0
    7.2791    3.7819    3.4188 C   0  0  0  0  0  0  0  0  0  0  0  0
    5.3641    2.0457    3.6242 C   0  0  0  0  0  0  0  0  0  0  0  0
    6.7696    2.3555    3.0330 C   0  0  0  0  0  0  0  0  0  0  0  0
    8.5634    4.1176    2.6582 C   0  0  0  0  0  0  0  0  0  0  0  0
    7.8422    1.2433    3.3340 C   0  0  2  0  0  0  0  0  0  0  0  0
    9.6174    3.0525    2.8263 C   0  0  0  0  0  0  0  0  0  0  0  0
    9.1750    1.6335    2.7212 C   0  0  0  0  0  0  0  0  0  0  0  0
    7.3727   -0.1002    2.7060 C   0  0  0  0  0  0  0  0  0  0  0  0
    8.0631    1.0428    4.8513 C   0  0  0  0  0  0  0  0  0  0  0  0
   10.8036    3.3370    2.9700 O   0  0  0  0  0  0  0  0  0  0  0  0
   10.0149    0.8053    2.0816 C   0  0  0  0  0  0  0  0  0  0  0  0
    8.4657   -1.1623    2.6437 C   0  0  0  0  0  0  0  0  0  0  0  0
    9.7023   -0.6347    1.9591 C   0  0  0  0  0  0  0  0  0  0  0  0
   10.4762   -1.3710    1.3533 O   0  0  0  0  0  0  0  0  0  0  0  0
  2  1  1  6
  2  3  1  0
  2  4  1  0
  3  5  2  0
  3  6  1  0
  7  4  1  1
  6  8  1  0
  6  9  1  1
  7 10  1  0
  8 11  1  0
 10 12  1  0
 10 13  1  0
 12 14  1  0
 13 15  1  0
 14 16  1  0
 14 17  1  0
 14 18  1  1
 15 19  2  0
 16 20  2  0
 17 21  1  0
 20 22  1  0
 22 23  2  0
  6  7  1  0
 12 11  1  0
 15 16  1  0
 21 22  1  0
M  END
