
     RDKit          3D

 27 30  0  0  0  0  0  0  0  0999 V2000
    2.3754    0.7392    1.1403 O   0  0  0  0  0  0  0  0  0  0  0  0
    3.2664    0.5229    1.9569 C   0  0  0  0  0  0  0  0  0  0  0  0
    4.1505    1.6302    2.3894 C   0  0  0  0  0  0  0  0  0  0  0  0
    3.5847   -0.8583    2.4649 C   0  0  0  0  0  0  0  0  0  0  0  0
    5.0467    1.4626    3.3798 C   0  0  0  0  0  0  0  0  0  0  0  0
    3.9206   -0.7663    3.9400 C   0  0  0  0  0  0  0  0  0  0  0  0
    6.1416    2.4274    3.5743 C   0  0  0  0  0  0  0  0  0  0  0  0
    5.1115    0.1850    4.2508 C   0  0  1  0  0  0  0  0  0  0  0  0
    7.3473    1.9855    3.9890 C   0  0  0  0  0  0  0  0  0  0  0  0
    5.9205    3.9051    3.3044 C   0  0  0  0  0  0  0  0  0  0  0  0
    6.5093   -0.4296    3.9196 C   0  0  1  0  0  0  0  0  0  0  0  0
    4.9646    0.5346    5.7562 C   0  0  0  0  0  0  0  0  0  0  0  0
    7.6501    0.5530    4.3584 C   0  0  1  0  0  0  0  0  0  0  0  0
    7.1563    4.5713    2.6864 C   0  0  0  0  0  0  0  0  0  0  0  0
    6.7889   -1.8621    4.4302 C   0  0  0  0  0  0  0  0  0  0  0  0
    8.9578   -0.0008    3.7899 C   0  0  2  0  0  0  0  0  0  0  0  0
    6.8116    5.7134    1.7250 C   0  0  0  0  0  0  0  0  0  0  0  0
    8.1902   -2.3680    4.0193 C   0  0  0  0  0  0  0  0  0  0  0  0
    9.2840   -1.3782    4.4183 C   0  0  1  0  0  0  0  0  0  0  0  0
   10.2598    0.7815    3.9204 C   0  0  0  0  0  0  0  0  0  0  0  0
    5.3712    6.2308    1.7982 C   0  0  0  0  0  0  0  0  0  0  0  0
   10.6525   -1.5768    3.7928 C   0  0  0  0  0  0  0  0  0  0  0  0
    9.5007   -1.3957    5.9444 C   0  0  0  0  0  0  0  0  0  0  0  0
   11.3142   -0.2450    3.4767 C   0  0  0  0  0  0  0  0  0  0  0  0
    4.9135    7.0865    0.6149 C   0  0  0  0  0  0  0  0  0  0  0  0
   11.1752   -2.6648    3.5926 O   0  0  0  0  0  0  0  0  0  0  0  0
    3.4028    7.2296    0.5177 C   0  0  0  0  0  0  0  0  0  0  0  0
  1  2  2  0
  2  3  1  0
  2  4  1  0
  3  5  2  0
  4  6  1  0
  5  7  1  0
  5  8  1  0
  7  9  2  0
  7 10  1  0
  8 11  1  0
  8 12  1  1
 13  9  1  6
 10 14  1  0
 11 15  1  1
 13 16  1  0
 14 17  1  0
 15 18  1  0
 16 19  1  0
 16 20  1  1
 17 21  1  0
 19 22  1  0
 19 23  1  1
 20 24  1  0
 21 25  1  0
 22 26  2  0
 25 27  1  0
  6  8  1  0
 11 13  1  0
 18 19  1  0
 22 24  1  0
M  END
