
     RDKit          3D

 20 22  0  0  0  0  0  0  0  0999 V2000
    9.9061    0.5331    1.7708 O   0  0  0  0  0  0  0  0  0  0  0  0
    9.4076    1.5849    2.1505 C   0  0  0  0  0  0  0  0  0  0  0  0
    9.4129    2.7907    1.2985 C   0  0  0  0  0  0  0  0  0  0  0  0
    8.7664    1.6969    3.4732 C   0  0  0  0  0  0  0  0  0  0  0  0
    8.8884    3.9575    1.7142 C   0  0  0  0  0  0  0  0  0  0  0  0
    8.2455    2.8584    3.8909 C   0  0  0  0  0  0  0  0  0  0  0  0
    8.2536    4.1609    3.0964 C   0  0  2  0  0  0  0  0  0  0  0  0
    8.8466    5.1422    0.7831 C   0  0  0  0  0  0  0  0  0  0  0  0
    6.7809    4.6779    2.8845 C   0  0  2  0  0  0  0  0  0  0  0  0
    9.1179    5.1524    3.9072 C   0  0  0  0  0  0  0  0  0  0  0  0
    7.4072    5.6020    0.5855 C   0  0  0  0  0  0  0  0  0  0  0  0
    6.7111    5.8987    1.9234 C   0  0  1  0  0  0  0  0  0  0  0  0
    6.0328    5.0128    4.1942 C   0  0  0  0  0  0  0  0  0  0  0  0
    5.2538    6.3238    1.6636 C   0  0  0  0  0  0  0  0  0  0  0  0
    4.5853    5.4390    3.9375 C   0  0  0  0  0  0  0  0  0  0  0  0
    4.4564    6.6164    2.9517 C   0  0  2  0  0  0  0  0  0  0  0  0
    2.9829    6.8095    2.5905 C   0  0  0  0  0  0  0  0  0  0  0  0
    4.9561    7.9194    3.6085 C   0  0  0  0  0  0  0  0  0  0  0  0
    2.4174    6.4133    1.5841 O   0  0  0  0  0  0  0  0  0  0  0  0
    2.2832    7.4916    3.5189 O   0  0  0  0  0  0  0  0  0  0  0  0
  1  2  2  0
  2  3  1  0
  2  4  1  0
  3  5  2  0
  4  6  2  0
  5  7  1  0
  5  8  1  0
  7  9  1  0
  7 10  1  1
  8 11  1  0
  9 12  1  0
  9 13  1  1
 12 14  1  6
 13 15  1  0
 14 16  1  0
 16 17  1  0
 16 18  1  1
 17 19  2  0
 17 20  1  0
  6  7  1  0
 11 12  1  0
 15 16  1  0
M  END
