
     RDKit          3D

 22 24  0  0  0  0  0  0  0  0999 V2000
    7.3870    7.6078    1.1809 Cl  0  0  0  0  0  0  0  0  0  0  0  0
    6.9162    6.3268    2.2279 C   0  0  0  0  0  0  0  0  0  0  0  0
    7.7929    5.8843    3.2167 C   0  0  0  0  0  0  0  0  0  0  0  0
    5.6624    5.7379    2.0817 C   0  0  0  0  0  0  0  0  0  0  0  0
    7.4129    4.8427    4.0674 C   0  0  0  0  0  0  0  0  0  0  0  0
    5.2817    4.6971    2.9323 C   0  0  0  0  0  0  0  0  0  0  0  0
    6.1546    4.2406    3.9300 C   0  0  0  0  0  0  0  0  0  0  0  0
    5.7492    3.1369    4.8279 C   0  0  0  0  0  0  0  0  0  0  0  0
    6.1937    1.8743    4.6422 C   0  0  0  0  0  0  0  0  0  0  0  0
    4.7850    3.5766    5.9174 C   0  0  0  0  0  0  0  0  0  0  0  0
    7.1177    1.4118    3.5968 C   0  0  0  0  0  0  0  0  0  0  0  0
    4.0960    4.8349    5.6739 N   0  0  0  0  0  0  0  0  0  0  0  0
    6.8217    0.3030    2.7947 C   0  0  0  0  0  0  0  0  0  0  0  0
    8.3068    2.1188    3.3794 C   0  0  0  0  0  0  0  0  0  0  0  0
    2.9746    4.8723    4.9308 N   0  0  0  0  0  0  0  0  0  0  0  0
    4.4557    6.0836    6.0901 C   0  0  0  0  0  0  0  0  0  0  0  0
    7.7157   -0.1088    1.8028 C   0  0  0  0  0  0  0  0  0  0  0  0
    9.2006    1.7084    2.3869 C   0  0  0  0  0  0  0  0  0  0  0  0
    2.5809    6.1377    4.8693 N   0  0  0  0  0  0  0  0  0  0  0  0
    3.4759    6.8943    5.5710 C   0  0  0  0  0  0  0  0  0  0  0  0
    8.9020    0.5946    1.6049 C   0  0  0  0  0  0  0  0  0  0  0  0
   10.0026    0.0874    0.3838 Cl  0  0  0  0  0  0  0  0  0  0  0  0
  1  2  1  0
  2  3  4  0
  2  4  4  0
  3  5  4  0
  4  6  4  0
  5  7  4  0
  7  8  1  0
  8  9  2  0
  8 10  1  0
  9 11  1  0
 10 12  1  0
 11 13  4  0
 11 14  4  0
 12 15  4  0
 12 16  4  0
 13 17  4  0
 14 18  4  0
 15 19  4  0
 16 20  4  0
 17 21  4  0
 21 22  1  0
  6  7  4  0
 18 21  4  0
 19 20  4  0
M  END
