
     RDKit          3D

 39 42  0  0  0  0  0  0  0  0999 V2000
    4.7278    6.9784    1.2339 Cl  0  0  0  0  0  0  0  0  0  0  0  0
    4.7330    5.8540    2.5363 C   0  0  0  0  0  0  0  0  0  0  0  0
    3.6639    5.8230    3.4303 C   0  0  0  0  0  0  0  0  0  0  0  0
    5.8052    4.9815    2.6963 C   0  0  0  0  0  0  0  0  0  0  0  0
    3.6659    4.9125    4.4943 C   0  0  0  0  0  0  0  0  0  0  0  0
    5.8036    4.0730    3.7586 C   0  0  0  0  0  0  0  0  0  0  0  0
    4.7367    4.0306    4.6623 C   0  0  0  0  0  0  0  0  0  0  0  0
    4.8764    3.1009    5.6568 O   0  0  0  0  0  0  0  0  0  0  0  0
    4.8089    1.7119    5.3037 C   0  0  0  0  0  0  0  0  0  0  0  0
    3.6344    1.0369    6.0331 C   0  0  2  0  0  0  0  0  0  0  0  0
    3.1346    1.9277    7.0385 O   0  0  0  0  0  0  0  0  0  0  0  0
    4.0996   -0.2970    6.6574 C   0  0  0  0  0  0  0  0  0  0  0  0
    5.1337   -0.2408    7.7176 N   0  0  0  0  0  0  0  0  0  0  0  0
    6.4590   -0.5628    7.1391 C   0  0  0  0  0  0  0  0  0  0  0  0
    4.9079   -1.1542    8.8481 C   0  0  0  0  0  0  0  0  0  0  0  0
    6.7982   -2.0823    7.0380 C   0  0  0  0  0  0  0  0  0  0  0  0
    4.9881   -2.6678    8.5119 C   0  0  0  0  0  0  0  0  0  0  0  0
    5.6270   -2.9762    7.2179 N   0  0  0  0  0  0  0  0  0  0  0  0
    6.0023   -4.4134    7.0673 C   0  0  0  0  0  0  0  0  0  0  0  0
    7.3228   -4.7156    7.7846 C   0  0  0  0  0  0  0  0  0  0  0  0
    6.1841   -4.9000    5.5890 C   0  0  0  0  0  0  0  0  0  0  0  0
    7.4499   -4.4384    9.1546 C   0  0  0  0  0  0  0  0  0  0  0  0
    8.4071   -5.3025    7.1105 C   0  0  0  0  0  0  0  0  0  0  0  0
    7.2846   -4.2810    4.8594 N   0  0  0  0  0  0  0  0  0  0  0  0
    8.6374   -4.7273    9.8293 C   0  0  0  0  0  0  0  0  0  0  0  0
    9.5936   -5.5891    7.7875 C   0  0  0  0  0  0  0  0  0  0  0  0
    7.0374   -3.3211    3.8983 C   0  0  0  0  0  0  0  0  0  0  0  0
    9.7082   -5.3004    9.1459 C   0  0  0  0  0  0  0  0  0  0  0  0
    6.0990   -2.5353    3.9559 O   0  0  0  0  0  0  0  0  0  0  0  0
    7.9652   -3.2966    2.7347 C   0  0  0  0  0  0  0  0  0  0  0  0
    9.3256   -3.5322    2.9630 C   0  0  0  0  0  0  0  0  0  0  0  0
    7.5110   -3.0754    1.4290 C   0  0  0  0  0  0  0  0  0  0  0  0
   10.2314   -3.5225    1.8988 C   0  0  0  0  0  0  0  0  0  0  0  0
    8.4186   -3.0667    0.3643 C   0  0  0  0  0  0  0  0  0  0  0  0
    9.7888   -3.2786    0.5893 C   0  0  0  0  0  0  0  0  0  0  0  0
   10.7622   -3.2918   -0.5661 C   0  0  0  0  0  0  0  0  0  0  0  0
   10.7549   -2.1352   -1.2864 F   0  0  0  0  0  0  0  0  0  0  0  0
   12.0476   -3.4726   -0.1566 F   0  0  0  0  0  0  0  0  0  0  0  0
   10.5089   -4.2881   -1.4606 F   0  0  0  0  0  0  0  0  0  0  0  0
  1  2  1  0
  2  3  4  0
  2  4  4  0
  3  5  4  0
  4  6  4  0
  5  7  4  0
  7  8  1  0
  8  9  1  0
  9 10  1  0
 10 11  1  1
 10 12  1  0
 12 13  1  0
 13 14  1  0
 13 15  1  0
 14 16  1  0
 15 17  1  0
 16 18  1  0
 18 19  1  0
 19 20  1  0
 19 21  1  0
 20 22  4  0
 20 23  4  0
 21 24  1  0
 22 25  4  0
 23 26  4  0
 24 27  1  0
 25 28  4  0
 27 29  2  0
 27 30  1  0
 30 31  4  0
 30 32  4  0
 31 33  4  0
 32 34  4  0
 33 35  4  0
 35 36  1  0
 36 37  1  0
 36 38  1  0
 36 39  1  0
  6  7  4  0
 17 18  1  0
 26 28  4  0
 34 35  4  0
M  END
