
     RDKit          3D

 39 42  0  0  0  0  0  0  0  0999 V2000
    6.7502   -2.3124    0.4881 F   0  0  0  0  0  0  0  0  0  0  0  0
    6.6404   -2.6459    1.7812 C   0  0  0  0  0  0  0  0  0  0  0  0
    6.1447   -3.8947    2.1265 C   0  0  0  0  0  0  0  0  0  0  0  0
    7.0205   -1.7363    2.7563 C   0  0  0  0  0  0  0  0  0  0  0  0
    6.0346   -4.2422    3.4747 C   0  0  0  0  0  0  0  0  0  0  0  0
    6.9166   -2.0850    4.1047 C   0  0  0  0  0  0  0  0  0  0  0  0
    6.4280   -3.3484    4.4874 C   0  0  0  0  0  0  0  0  0  0  0  0
    6.3476   -3.7098    5.9716 C   0  0  2  0  0  0  0  0  0  0  0  0
    5.5019   -2.8140    6.8122 N   0  0  0  0  0  0  0  0  0  0  0  0
    7.7318   -3.9613    6.6519 C   0  0  0  0  0  0  0  0  0  0  0  0
    6.1820   -1.6327    7.3743 C   0  0  0  0  0  0  0  0  0  0  0  0
    4.1811   -2.4996    6.2461 C   0  0  0  0  0  0  0  0  0  0  0  0
    8.6239   -3.1172    6.7216 O   0  0  0  0  0  0  0  0  0  0  0  0
    7.9044   -5.2571    7.0971 N   0  0  0  0  0  0  0  0  0  0  0  0
    5.2261   -0.4487    7.6251 C   0  0  0  0  0  0  0  0  0  0  0  0
    4.0347   -1.0971    5.6058 C   0  0  0  0  0  0  0  0  0  0  0  0
    9.1621   -5.9565    7.0112 C   0  0  0  0  0  0  0  0  0  0  0  0
    4.5686    0.0346    6.4001 N   0  0  0  0  0  0  0  0  0  0  0  0
    9.6989   -5.9125    5.6042 C   0  0  0  0  0  0  0  0  0  0  0  0
    5.4027    0.9014    5.5321 C   0  0  0  0  0  0  0  0  0  0  0  0
    9.1329   -6.6985    4.5938 C   0  0  0  0  0  0  0  0  0  0  0  0
   10.7547   -5.0509    5.2765 C   0  0  0  0  0  0  0  0  0  0  0  0
    4.6872    2.1135    4.8819 C   0  0  1  0  0  0  0  0  0  0  0  0
    9.6263   -6.6291    3.2884 C   0  0  0  0  0  0  0  0  0  0  0  0
   11.2453   -4.9827    3.9682 C   0  0  0  0  0  0  0  0  0  0  0  0
    4.3751    3.1058    5.8754 O   0  0  0  0  0  0  0  0  0  0  0  0
    5.5477    2.7797    3.7944 C   0  0  0  0  0  0  0  0  0  0  0  0
   10.6824   -5.7736    2.9672 C   0  0  0  0  0  0  0  0  0  0  0  0
    5.9501    4.0946    4.1970 O   0  0  0  0  0  0  0  0  0  0  0  0
   11.0625   -5.8048    1.6544 O   0  0  0  0  0  0  0  0  0  0  0  0
    5.8111    4.9997    3.1754 C   0  0  0  0  0  0  0  0  0  0  0  0
   12.2868   -6.4638    1.3581 C   0  0  0  0  0  0  0  0  0  0  0  0
    6.8853    5.1730    2.2861 C   0  0  0  0  0  0  0  0  0  0  0  0
    4.6498    5.7850    3.0752 C   0  0  0  0  0  0  0  0  0  0  0  0
    6.7510    6.0905    1.2359 C   0  0  0  0  0  0  0  0  0  0  0  0
    8.1452    4.3646    2.4043 C   0  0  0  0  0  0  0  0  0  0  0  0
    4.5431    6.6941    2.0135 C   0  0  0  0  0  0  0  0  0  0  0  0
    3.5208    5.6585    4.0572 C   0  0  0  0  0  0  0  0  0  0  0  0
    5.5860    6.8441    1.0987 C   0  0  0  0  0  0  0  0  0  0  0  0
  1  2  1  0
  2  3  4  0
  2  4  4  0
  3  5  4  0
  4  6  4  0
  5  7  4  0
  8  7  1  6
  8  9  1  0
  8 10  1  0
  9 11  1  0
  9 12  1  0
 10 13  2  0
 10 14  1  0
 11 15  1  0
 12 16  1  0
 14 17  1  0
 15 18  1  0
 17 19  1  0
 18 20  1  0
 19 21  4  0
 19 22  4  0
 20 23  1  0
 21 24  4  0
 22 25  4  0
 23 26  1  1
 23 27  1  0
 24 28  4  0
 27 29  1  0
 28 30  1  0
 29 31  1  0
 30 32  1  0
 31 33  4  0
 31 34  4  0
 33 35  4  0
 33 36  1  0
 34 37  4  0
 34 38  1  0
 35 39  4  0
  6  7  4  0
 16 18  1  0
 25 28  4  0
 37 39  4  0
M  END
