
     RDKit          3D

 22 25  0  0  0  0  0  0  0  0999 V2000
    8.2120    7.1966    2.3021 F   0  0  0  0  0  0  0  0  0  0  0  0
    7.6751    6.1714    3.0245 C   0  0  1  0  0  0  0  0  0  0  0  0
    6.1652    6.1804    2.9530 C   0  0  0  0  0  0  0  0  0  0  0  0
    8.2706    4.8765    2.4927 C   0  0  0  0  0  0  0  0  0  0  0  0
    5.5244    7.2267    2.3996 C   0  0  0  0  0  0  0  0  0  0  0  0
    5.4443    4.9676    3.5571 C   0  0  2  0  0  0  0  0  0  0  0  0
    7.6837    3.6578    3.2101 C   0  0  1  0  0  0  0  0  0  0  0  0
    4.0488    7.3404    2.4168 C   0  0  0  0  0  0  0  0  0  0  0  0
    6.1290    3.6400    3.0485 C   0  0  1  0  0  0  0  0  0  0  0  0
    3.9538    4.9532    3.1035 C   0  0  0  0  0  0  0  0  0  0  0  0
    5.4978    5.0929    5.0964 C   0  0  0  0  0  0  0  0  0  0  0  0
    8.2415    2.3470    2.6487 C   0  0  2  0  0  0  0  0  0  0  0  0
    3.5074    8.2972    1.8697 O   0  0  0  0  0  0  0  0  0  0  0  0
    3.2708    6.3102    3.1909 C   0  0  0  0  0  0  0  0  0  0  0  0
    5.4971    2.3414    3.6262 C   0  0  0  0  0  0  0  0  0  0  0  0
    7.6989    1.1222    3.4126 C   0  0  1  0  0  0  0  0  0  0  0  0
    9.7484    2.1186    2.6002 C   0  0  0  0  0  0  0  0  0  0  0  0
    6.1960    1.0488    3.1650 C   0  0  0  0  0  0  0  0  0  0  0  0
    8.5498    0.0544    2.7490 C   0  0  0  0  0  0  0  0  0  0  0  0
    8.0225    1.0694    4.9171 C   0  0  0  0  0  0  0  0  0  0  0  0
    9.8544    0.6322    2.2267 C   0  0  0  0  0  0  0  0  0  0  0  0
    8.2432   -1.1272    2.6659 O   0  0  0  0  0  0  0  0  0  0  0  0
  2  1  1  6
  2  3  1  0
  2  4  1  0
  3  5  2  0
  3  6  1  0
  7  4  1  6
  5  8  1  0
  6  9  1  0
  6 10  1  0
  6 11  1  1
  7 12  1  0
  8 13  2  0
  8 14  1  0
  9 15  1  1
 12 16  1  0
 12 17  1  1
 15 18  1  0
 16 19  1  0
 16 20  1  1
 17 21  1  0
 19 22  2  0
  7  9  1  0
 10 14  1  0
 16 18  1  0
 19 21  1  0
M  END
