
     RDKit          3D

 28 32  0  0  0  0  0  0  0  0999 V2000
    5.9482    7.8831    2.7409 S   0  0  0  0  0  0  0  0  0  0  0  0
    5.3242    6.3129    3.1786 C   0  0  0  0  0  0  0  0  0  0  0  0
    5.4063    7.9300    1.0396 C   0  0  0  0  0  0  0  0  0  0  0  0
    3.8571    6.1211    2.9191 C   0  0  0  0  0  0  0  0  0  0  0  0
    6.0711    5.3316    3.7417 C   0  0  0  0  0  0  0  0  0  0  0  0
    4.2727    8.6692    0.6869 C   0  0  0  0  0  0  0  0  0  0  0  0
    6.0816    7.2009    0.0539 C   0  0  0  0  0  0  0  0  0  0  0  0
    3.1082    6.9973    2.4963 O   0  0  0  0  0  0  0  0  0  0  0  0
    3.2925    4.7886    3.1957 C   0  0  0  0  0  0  0  0  0  0  0  0
    5.4997    3.9444    4.1157 C   0  0  1  0  0  0  0  0  0  0  0  0
    7.5569    5.4719    4.0321 C   0  0  0  0  0  0  0  0  0  0  0  0
    3.8344    8.6995   -0.6392 C   0  0  0  0  0  0  0  0  0  0  0  0
    5.6451    7.2337   -1.2724 C   0  0  0  0  0  0  0  0  0  0  0  0
    4.0362    3.8167    3.7299 C   0  0  0  0  0  0  0  0  0  0  0  0
    6.3471    2.8473    3.3621 C   0  0  1  0  0  0  0  0  0  0  0  0
    5.5389    3.7672    5.6524 C   0  0  0  0  0  0  0  0  0  0  0  0
    8.3601    4.4113    3.2856 C   0  0  0  0  0  0  0  0  0  0  0  0
    4.5234    7.9843   -1.6188 C   0  0  0  0  0  0  0  0  0  0  0  0
    7.8828    2.9977    3.6334 C   0  0  2  0  0  0  0  0  0  0  0  0
    5.8732    1.3818    3.5976 C   0  0  0  0  0  0  0  0  0  0  0  0
    8.6246    1.9322    2.8219 C   0  0  2  0  0  0  0  0  0  0  0  0
    6.7473    0.3202    2.9018 C   0  0  0  0  0  0  0  0  0  0  0  0
    8.2194    0.5075    3.2500 C   0  0  1  0  0  0  0  0  0  0  0  0
   10.1496    1.9010    2.8173 C   0  0  0  0  0  0  0  0  0  0  0  0
    9.2213   -0.2654    2.4118 C   0  0  0  0  0  0  0  0  0  0  0  0
    8.4986    0.1375    4.7181 C   0  0  0  0  0  0  0  0  0  0  0  0
   10.4611    0.5654    2.1255 C   0  0  0  0  0  0  0  0  0  0  0  0
    9.0701   -1.4194    2.0344 O   0  0  0  0  0  0  0  0  0  0  0  0
  1  2  1  0
  1  3  1  0
  2  4  1  0
  2  5  2  0
  3  6  4  0
  3  7  4  0
  4  8  2  0
  4  9  1  0
  5 10  1  0
  5 11  1  0
  6 12  4  0
  7 13  4  0
  9 14  2  0
 10 15  1  0
 10 16  1  1
 11 17  1  0
 12 18  4  0
 15 19  1  0
 15 20  1  1
 19 21  1  0
 20 22  1  0
 21 23  1  0
 21 24  1  1
 23 25  1  0
 23 26  1  1
 24 27  1  0
 25 28  2  0
 10 14  1  0
 13 18  4  0
 19 17  1  6
 22 23  1  0
 25 27  1  0
M  END
