
     RDKit          3D

 14 15  0  0  0  0  0  0  0  0999 V2000
    3.1740    6.3841    2.0520 S   0  0  0  0  0  0  0  0  0  0  0  0
    4.5603    7.5561    2.1932 C   0  0  0  0  0  0  0  0  0  0  0  0
    2.7664    6.6032    0.3035 C   0  0  0  0  0  0  0  0  0  0  0  0
    5.8654    6.9540    1.8257 C   0  0  0  0  0  0  0  0  0  0  0  0
    6.1957    5.7821    2.4393 O   0  0  0  0  0  0  0  0  0  0  0  0
    6.8822    7.3399    0.9785 C   0  0  0  0  0  0  0  0  0  0  0  0
    7.4220    5.3985    1.9743 C   0  0  0  0  0  0  0  0  0  0  0  0
    7.8799    6.3383    1.0709 C   0  0  0  0  0  0  0  0  0  0  0  0
    7.9515    4.1508    2.5088 C   0  0  0  0  0  0  0  0  0  0  0  0
    7.1798    3.2971    3.2958 C   0  0  0  0  0  0  0  0  0  0  0  0
    9.2668    3.7465    2.2558 C   0  0  0  0  0  0  0  0  0  0  0  0
    7.6167    2.1239    3.8230 N   0  0  0  0  0  0  0  0  0  0  0  0
    9.7459    2.5465    2.7818 C   0  0  0  0  0  0  0  0  0  0  0  0
    8.8910    1.7774    3.5520 C   0  0  0  0  0  0  0  0  0  0  0  0
  1  2  1  0
  1  3  1  0
  2  4  1  0
  4  5  4  0
  4  6  4  0
  5  7  4  0
  6  8  4  0
  7  9  1  0
  9 10  4  0
  9 11  4  0
 10 12  4  0
 11 13  4  0
 12 14  4  0
  7  8  4  0
 13 14  4  0
M  END
