
     RDKit          3D

 26 29  0  0  0  0  0  0  0  0999 V2000
   18.0920   18.2924   -2.0586 O   0  0  0  0  0  0  0  0  0  0  0  0
   18.5244   18.0901   -0.9307 C   0  0  0  0  0  0  0  0  0  0  0  0
   18.0974   16.9152   -0.1453 C   0  0  0  0  0  0  0  0  0  0  0  0
   19.4634   19.0281   -0.2946 C   0  0  0  0  0  0  0  0  0  0  0  0
   18.6060   16.6296    1.0688 C   0  0  0  0  0  0  0  0  0  0  0  0
   19.9976   18.7528    0.9012 C   0  0  0  0  0  0  0  0  0  0  0  0
   18.0720   15.5245    1.8874 C   0  0  0  0  0  0  0  0  0  0  0  0
   19.7355   17.4824    1.7018 C   0  0  1  0  0  0  0  0  0  0  0  0
   18.3040   15.4771    3.2144 C   0  0  0  0  0  0  0  0  0  0  0  0
   17.2960   14.3914    1.2379 C   0  0  0  0  0  0  0  0  0  0  0  0
   19.2805   17.8176    3.1603 C   0  0  1  0  0  0  0  0  0  0  0  0
   21.0632   16.6888    1.6573 C   0  0  0  0  0  0  0  0  0  0  0  0
   19.0867   16.5045    3.9854 C   0  0  1  0  0  0  0  0  0  0  0  0
   17.6803   13.0185    1.8049 C   0  0  0  0  0  0  0  0  0  0  0  0
   20.1477   18.8382    3.9440 C   0  0  0  0  0  0  0  0  0  0  0  0
   18.4549   16.8996    5.3238 C   0  0  2  0  0  0  0  0  0  0  0  0
   17.4387   11.9112    0.7759 C   0  0  0  0  0  0  0  0  0  0  0  0
   19.6155   19.1046    5.3682 C   0  0  0  0  0  0  0  0  0  0  0  0
   19.4119   17.8023    6.1379 C   0  0  1  0  0  0  0  0  0  0  0  0
   18.0156   15.8346    6.3240 C   0  0  0  0  0  0  0  0  0  0  0  0
   18.2710   10.6530    1.0324 C   0  0  0  0  0  0  0  0  0  0  0  0
   18.5971   17.8828    7.4157 C   0  0  0  0  0  0  0  0  0  0  0  0
   20.7667   17.1789    6.5268 C   0  0  0  0  0  0  0  0  0  0  0  0
   17.7113   16.6596    7.5843 C   0  0  0  0  0  0  0  0  0  0  0  0
   17.6544    9.3885    0.4545 C   0  0  0  0  0  0  0  0  0  0  0  0
   18.6617   18.7974    8.2259 O   0  0  0  0  0  0  0  0  0  0  0  0
  1  2  2  0
  2  3  1  0
  2  4  1  0
  3  5  2  0
  4  6  2  0
  5  7  1  0
  5  8  1  0
  7  9  2  0
  7 10  1  0
  8 11  1  0
  8 12  1  1
 13  9  1  6
 10 14  1  0
 11 15  1  1
 13 16  1  0
 14 17  1  0
 15 18  1  0
 16 19  1  0
 16 20  1  1
 17 21  1  0
 19 22  1  0
 19 23  1  1
 20 24  1  0
 21 25  1  0
 22 26  2  0
  6  8  1  0
 11 13  1  0
 18 19  1  0
 22 24  1  0
M  END
