
     RDKit          3D

 27 30  0  0  0  0  0  0  0  0999 V2000
    2.1194   12.6748    7.9688 O   0  0  0  0  0  0  0  0  0  0  0  0
    3.1195   12.5489    8.6644 C   0  0  0  0  0  0  0  0  0  0  0  0
    4.4325   13.0543    8.2173 C   0  0  0  0  0  0  0  0  0  0  0  0
    3.0620   11.8630    9.9650 C   0  0  0  0  0  0  0  0  0  0  0  0
    5.5375   12.9867    8.9845 C   0  0  0  0  0  0  0  0  0  0  0  0
    4.1456   11.7902   10.7468 C   0  0  0  0  0  0  0  0  0  0  0  0
    6.8581   13.3916    8.4655 C   0  0  0  0  0  0  0  0  0  0  0  0
    5.5034   12.4002   10.4183 C   0  0  1  0  0  0  0  0  0  0  0  0
    7.9831   12.8931    9.0160 C   0  0  0  0  0  0  0  0  0  0  0  0
    6.9687   14.3698    7.3048 C   0  0  0  0  0  0  0  0  0  0  0  0
    6.6316   11.3188   10.4796 C   0  0  1  0  0  0  0  0  0  0  0  0
    5.7035   13.5365   11.4484 C   0  0  0  0  0  0  0  0  0  0  0  0
    8.0247   11.9674   10.2008 C   0  0  1  0  0  0  0  0  0  0  0  0
    5.6705   15.1060    6.9431 C   0  0  0  0  0  0  0  0  0  0  0  0
    6.6811   10.4342   11.7531 C   0  0  0  0  0  0  0  0  0  0  0  0
    9.0401   10.8279   10.0761 C   0  0  2  0  0  0  0  0  0  0  0  0
    5.4723   15.4743    5.4664 C   0  0  0  0  0  0  0  0  0  0  0  0
    7.8229    9.3958   11.7136 C   0  0  0  0  0  0  0  0  0  0  0  0
    9.1654   10.0571   11.4118 C   0  0  1  0  0  0  0  0  0  0  0  0
   10.4856   11.1112    9.6791 C   0  0  0  0  0  0  0  0  0  0  0  0
    4.1093   16.0902    5.1267 C   0  0  0  0  0  0  0  0  0  0  0  0
   10.3099    9.1393   11.0233 C   0  0  0  0  0  0  0  0  0  0  0  0
    9.6577   10.8729   12.6233 C   0  0  0  0  0  0  0  0  0  0  0  0
   11.1787    9.7657    9.9451 C   0  0  0  0  0  0  0  0  0  0  0  0
    3.4615   15.6315    3.8199 C   0  0  0  0  0  0  0  0  0  0  0  0
   10.5290    8.0473   11.5298 O   0  0  0  0  0  0  0  0  0  0  0  0
    4.0541   16.2882    2.5818 C   0  0  0  0  0  0  0  0  0  0  0  0
  1  2  2  0
  2  3  1  0
  2  4  1  0
  3  5  2  0
  4  6  2  0
  5  7  1  0
  5  8  1  0
  7  9  2  0
  7 10  1  0
  8 11  1  0
  8 12  1  1
 13  9  1  6
 10 14  1  0
 11 15  1  1
 13 16  1  0
 14 17  1  0
 15 18  1  0
 16 19  1  0
 16 20  1  1
 17 21  1  0
 19 22  1  0
 19 23  1  1
 20 24  1  0
 21 25  1  0
 22 26  2  0
 25 27  1  0
  6  8  1  0
 11 13  1  0
 18 19  1  0
 22 24  1  0
M  END
