
     RDKit          3D

 37 40  0  0  0  0  0  0  0  0999 V2000
    4.2132   -5.6836    2.8933 F   0  0  0  0  0  0  0  0  0  0  0  0
    4.9358   -5.1820    3.9066 C   0  0  0  0  0  0  0  0  0  0  0  0
    5.8463   -4.1604    3.6595 C   0  0  0  0  0  0  0  0  0  0  0  0
    4.7597   -5.6906    5.1834 C   0  0  0  0  0  0  0  0  0  0  0  0
    6.6158   -3.6470    4.7087 C   0  0  0  0  0  0  0  0  0  0  0  0
    5.5235   -5.1749    6.2325 C   0  0  0  0  0  0  0  0  0  0  0  0
    6.4791   -4.1621    6.0098 C   0  0  0  0  0  0  0  0  0  0  0  0
    7.3166   -3.6849    7.1983 C   0  0  2  0  0  0  0  0  0  0  0  0
    7.0661   -2.2662    7.5466 N   0  0  0  0  0  0  0  0  0  0  0  0
    8.8371   -4.0257    7.0903 C   0  0  0  0  0  0  0  0  0  0  0  0
    5.6589   -1.8483    7.4114 C   0  0  0  0  0  0  0  0  0  0  0  0
    7.9907   -1.3084    6.9123 C   0  0  0  0  0  0  0  0  0  0  0  0
    9.5098   -4.5025    8.0033 O   0  0  0  0  0  0  0  0  0  0  0  0
    9.3884   -3.7358    5.8530 N   0  0  0  0  0  0  0  0  0  0  0  0
    5.4861   -0.3225    7.2358 C   0  0  0  0  0  0  0  0  0  0  0  0
    7.3896   -0.5208    5.7265 C   0  0  0  0  0  0  0  0  0  0  0  0
   10.5975   -2.9536    5.7277 C   0  0  0  0  0  0  0  0  0  0  0  0
    6.1523    0.2332    6.0460 N   0  0  0  0  0  0  0  0  0  0  0  0
   11.6447   -3.7189    4.9641 C   0  0  0  0  0  0  0  0  0  0  0  0
    5.2844    0.2870    4.8486 C   0  0  0  0  0  0  0  0  0  0  0  0
   12.7660   -4.2313    5.6271 C   0  0  0  0  0  0  0  0  0  0  0  0
   11.4961   -3.9639    3.5890 C   0  0  0  0  0  0  0  0  0  0  0  0
    4.8122    1.6973    4.4250 C   0  0  1  0  0  0  0  0  0  0  0  0
   13.7313   -4.9592    4.9277 C   0  0  0  0  0  0  0  0  0  0  0  0
   12.4623   -4.6923    2.8906 C   0  0  0  0  0  0  0  0  0  0  0  0
    4.4669    2.4661    5.5895 O   0  0  0  0  0  0  0  0  0  0  0  0
    5.8978    2.4173    3.6041 C   0  0  0  0  0  0  0  0  0  0  0  0
   13.5789   -5.1878    3.5603 C   0  0  0  0  0  0  0  0  0  0  0  0
    6.1625    3.6992    4.1999 O   0  0  0  0  0  0  0  0  0  0  0  0
    6.0300    4.7003    3.2694 C   0  0  0  0  0  0  0  0  0  0  0  0
    7.0926    4.9551    2.3839 C   0  0  0  0  0  0  0  0  0  0  0  0
    4.8691    5.4904    3.2564 C   0  0  0  0  0  0  0  0  0  0  0  0
    6.9348    5.9520    1.4114 C   0  0  0  0  0  0  0  0  0  0  0  0
    8.3639    4.1585    2.4193 C   0  0  0  0  0  0  0  0  0  0  0  0
    4.7416    6.4822    2.2733 C   0  0  0  0  0  0  0  0  0  0  0  0
    3.7504    5.2821    4.2354 C   0  0  0  0  0  0  0  0  0  0  0  0
    5.7644    6.7055    1.3513 C   0  0  0  0  0  0  0  0  0  0  0  0
  1  2  1  0
  2  3  4  0
  2  4  4  0
  3  5  4  0
  4  6  4  0
  5  7  4  0
  8  7  1  6
  8  9  1  0
  8 10  1  0
  9 11  1  0
  9 12  1  0
 10 13  2  0
 10 14  1  0
 11 15  1  0
 12 16  1  0
 14 17  1  0
 15 18  1  0
 17 19  1  0
 18 20  1  0
 19 21  4  0
 19 22  4  0
 20 23  1  0
 21 24  4  0
 22 25  4  0
 23 26  1  1
 23 27  1  0
 24 28  4  0
 27 29  1  0
 29 30  1  0
 30 31  4  0
 30 32  4  0
 31 33  4  0
 31 34  1  0
 32 35  4  0
 32 36  1  0
 33 37  4  0
  6  7  4  0
 16 18  1  0
 25 28  4  0
 35 37  4  0
M  END
