
     RDKit          3D

 34 37  0  0  0  0  0  0  0  0999 V2000
    0.3216   -1.8881    1.6018 F   0  0  0  0  0  0  0  0  0  0  0  0
    1.4308   -1.5296    0.8948 C   0  0  0  0  0  0  0  0  0  0  0  0
    0.9828   -0.7744   -0.1458 F   0  0  0  0  0  0  0  0  0  0  0  0
    1.9031   -2.6781    0.3363 F   0  0  0  0  0  0  0  0  0  0  0  0
    2.4642   -0.8429    1.7480 C   0  0  0  0  0  0  0  0  0  0  0  0
    2.5754   -1.1723    3.1048 C   0  0  0  0  0  0  0  0  0  0  0  0
    3.3235    0.1282    1.2152 C   0  0  0  0  0  0  0  0  0  0  0  0
    3.5391   -0.5616    3.9076 C   0  0  0  0  0  0  0  0  0  0  0  0
    4.2883    0.7423    2.0192 C   0  0  0  0  0  0  0  0  0  0  0  0
    4.4194    0.3943    3.3727 C   0  0  0  0  0  0  0  0  0  0  0  0
    5.4834    1.0252    4.2828 C   0  0  0  0  0  0  0  0  0  0  0  0
    6.2870    0.0438    5.0760 N   0  0  0  0  0  0  0  0  0  0  0  0
    4.8425    2.1028    5.1810 C   0  0  0  0  0  0  0  0  0  0  0  0
    6.4878   -1.2660    4.4103 C   0  0  0  0  0  0  0  0  0  0  0  0
    7.6471    0.5882    5.3347 C   0  0  0  0  0  0  0  0  0  0  0  0
    5.1970    3.4605    5.0787 C   0  0  0  0  0  0  0  0  0  0  0  0
    3.8929    1.7310    6.1515 C   0  0  0  0  0  0  0  0  0  0  0  0
    7.4918   -1.3030    3.2262 C   0  0  0  0  0  0  0  0  0  0  0  0
    8.5882    0.6740    4.0921 C   0  0  0  0  0  0  0  0  0  0  0  0
    4.5955    4.4203    5.8946 C   0  0  0  0  0  0  0  0  0  0  0  0
    3.2945    2.6920    6.9703 C   0  0  0  0  0  0  0  0  0  0  0  0
    8.0476    0.0118    2.8876 N   0  0  0  0  0  0  0  0  0  0  0  0
    3.6421    4.0375    6.8368 C   0  0  0  0  0  0  0  0  0  0  0  0
    9.0076   -0.0640    1.7740 C   0  0  0  0  0  0  0  0  0  0  0  0
   10.4650   -0.1504    2.2814 C   0  0  1  0  0  0  0  0  0  0  0  0
   10.8427    1.0859    2.9087 O   0  0  0  0  0  0  0  0  0  0  0  0
   10.6726   -1.2948    3.2927 C   0  0  0  0  0  0  0  0  0  0  0  0
   10.0921   -2.5392    2.9034 O   0  0  0  0  0  0  0  0  0  0  0  0
   10.4574   -3.0835    1.7067 C   0  0  0  0  0  0  0  0  0  0  0  0
   11.7080   -3.7065    1.7125 C   0  0  0  0  0  0  0  0  0  0  0  0
    9.7153   -3.0563    0.5267 C   0  0  0  0  0  0  0  0  0  0  0  0
   12.2030   -4.3220    0.5630 C   0  0  0  0  0  0  0  0  0  0  0  0
   10.2113   -3.6773   -0.6233 C   0  0  0  0  0  0  0  0  0  0  0  0
   11.4515   -4.3113   -0.6044 C   0  0  0  0  0  0  0  0  0  0  0  0
  1  2  1  0
  2  3  1  0
  2  4  1  0
  2  5  1  0
  5  6  4  0
  5  7  4  0
  6  8  4  0
  7  9  4  0
  8 10  4  0
 10 11  1  0
 11 12  1  0
 11 13  1  0
 12 14  1  0
 12 15  1  0
 13 16  4  0
 13 17  4  0
 14 18  1  0
 15 19  1  0
 16 20  4  0
 17 21  4  0
 18 22  1  0
 20 23  4  0
 22 24  1  0
 24 25  1  0
 25 26  1  1
 25 27  1  0
 27 28  1  0
 28 29  1  0
 29 30  4  0
 29 31  4  0
 30 32  4  0
 31 33  4  0
 32 34  4  0
  9 10  4  0
 19 22  1  0
 21 23  4  0
 33 34  4  0
M  END
