
     RDKit          3D

 21 24  0  0  0  0  0  0  0  0999 V2000
    5.8171   -0.3765    4.8648 O   0  0  0  0  0  0  0  0  0  0  0  0
    6.5318    0.5163    4.4273 C   0  0  0  0  0  0  0  0  0  0  0  0
    6.0581    1.9298    4.1101 C   0  0  0  0  0  0  0  0  0  0  0  0
    8.0057    0.3315    4.1064 C   0  0  0  0  0  0  0  0  0  0  0  0
    7.4209    2.6435    4.2212 C   0  0  0  0  0  0  0  0  0  0  0  0
    5.0751    2.5410    5.1177 C   0  0  0  0  0  0  0  0  0  0  0  0
    5.4338    1.8539    2.7083 C   0  0  0  0  0  0  0  0  0  0  0  0
    8.4146    1.7014    3.5497 C   0  0  0  0  0  0  0  0  0  0  0  0
    7.3844    4.1340    3.8473 C   0  0  0  0  0  0  0  0  0  0  0  0
    5.4551    3.9756    5.5333 C   0  0  0  0  0  0  0  0  0  0  0  0
    6.0944    4.8313    4.4074 C   0  0  0  0  0  0  0  0  0  0  0  0
    7.6885    4.4248    2.3707 C   0  0  0  0  0  0  0  0  0  0  0  0
    5.1547    5.3527    3.3229 C   0  0  0  0  0  0  0  0  0  0  0  0
    7.2233    5.8272    1.9584 C   0  0  0  0  0  0  0  0  0  0  0  0
    5.7129    5.8774    2.1303 C   0  0  0  0  0  0  0  0  0  0  0  0
    3.7606    5.4073    3.4977 C   0  0  0  0  0  0  0  0  0  0  0  0
    7.7468    6.1400    0.5526 C   0  0  0  0  0  0  0  0  0  0  0  0
    4.8634    6.4299    1.1582 C   0  0  0  0  0  0  0  0  0  0  0  0
    2.9286    5.9458    2.5145 C   0  0  0  0  0  0  0  0  0  0  0  0
    3.4882    6.4538    1.3534 C   0  0  0  0  0  0  0  0  0  0  0  0
    2.7154    6.9960    0.3693 O   0  0  0  0  0  0  0  0  0  0  0  0
  1  2  2  0
  2  3  1  0
  2  4  1  0
  3  5  1  0
  3  6  1  0
  3  7  1  0
  4  8  1  0
  5  9  1  0
  6 10  1  0
  9 11  1  0
  9 12  1  0
 11 13  1  0
 12 14  1  0
 13 15  4  0
 13 16  4  0
 14 17  1  0
 15 18  4  0
 16 19  4  0
 18 20  4  0
 20 21  1  0
  5  8  1  0
 11 10  1  0
 14 15  1  0
 19 20  4  0
M  END
