
     RDKit          3D

 38 41  0  0  0  0  0  0  0  0999 V2000
    4.6594    1.3933    3.3148 O   0  0  0  0  0  0  0  0  0  0  0  0
    5.0138    2.2540    4.1123 C   0  0  0  0  0  0  0  0  0  0  0  0
    5.1166    2.0339    5.4646 N   0  0  0  0  0  0  0  0  0  0  0  0
    5.3170    3.6375    3.6485 C   0  0  0  0  0  0  0  0  0  0  0  0
    4.1293    1.2467    6.1922 C   0  0  0  0  0  0  0  0  0  0  0  0
    6.5893    3.9058    3.1342 C   0  0  0  0  0  0  0  0  0  0  0  0
    4.3771    4.6732    3.7290 C   0  0  0  0  0  0  0  0  0  0  0  0
    4.5642   -0.2483    6.3500 C   0  0  0  0  0  0  0  0  0  0  0  0
    6.9069    5.1908    2.6853 C   0  0  0  0  0  0  0  0  0  0  0  0
    4.7013    5.9598    3.2791 C   0  0  0  0  0  0  0  0  0  0  0  0
    5.6666   -0.6087    5.3929 N   0  0  0  0  0  0  0  0  0  0  0  0
    3.3233   -1.1371    6.1993 C   0  0  0  0  0  0  0  0  0  0  0  0
    5.9672    6.2228    2.7535 C   0  0  0  0  0  0  0  0  0  0  0  0
    7.0053   -0.4814    6.0332 C   0  0  0  0  0  0  0  0  0  0  0  0
    5.5605   -1.9971    4.8897 C   0  0  0  0  0  0  0  0  0  0  0  0
    2.9183   -2.0261    7.2079 C   0  0  0  0  0  0  0  0  0  0  0  0
    2.5585   -1.0686    5.0217 C   0  0  0  0  0  0  0  0  0  0  0  0
    6.4070    7.4285    2.2819 O   0  0  0  0  0  0  0  0  0  0  0  0
    7.5715   -1.7515    6.7314 C   0  0  0  0  0  0  0  0  0  0  0  0
    5.7304   -3.1080    5.9590 C   0  0  0  0  0  0  0  0  0  0  0  0
    1.7836   -2.8228    7.0437 C   0  0  0  0  0  0  0  0  0  0  0  0
    1.4216   -1.8627    4.8618 C   0  0  0  0  0  0  0  0  0  0  0  0
    6.0927    7.7467    0.9323 C   0  0  0  0  0  0  0  0  0  0  0  0
    6.5241   -2.7011    7.1425 N   0  0  0  0  0  0  0  0  0  0  0  0
    1.0355   -2.7399    5.8718 C   0  0  0  0  0  0  0  0  0  0  0  0
    7.1117   -3.8670    7.8428 C   0  0  0  0  0  0  0  0  0  0  0  0
    8.4086   -4.3460    7.1524 C   0  0  2  0  0  0  0  0  0  0  0  0
    9.5204   -3.6044    7.6728 O   0  0  0  0  0  0  0  0  0  0  0  0
    8.3441   -4.1731    5.6301 C   0  0  0  0  0  0  0  0  0  0  0  0
    9.5435   -3.6150    5.0916 O   0  0  0  0  0  0  0  0  0  0  0  0
    9.5498   -3.2147    3.7856 C   0  0  0  0  0  0  0  0  0  0  0  0
    9.5799   -4.2577    2.8590 C   0  0  0  0  0  0  0  0  0  0  0  0
    9.5264   -1.8998    3.3226 C   0  0  0  0  0  0  0  0  0  0  0  0
    9.6080   -3.9901    1.4880 C   0  0  0  0  0  0  0  0  0  0  0  0
    9.5552   -1.6310    1.9465 C   0  0  0  0  0  0  0  0  0  0  0  0
    9.6008   -2.6750    1.0229 C   0  0  0  0  0  0  0  0  0  0  0  0
    9.6374   -2.5470   -0.3373 O   0  0  0  0  0  0  0  0  0  0  0  0
   10.8641   -2.8682   -0.9807 C   0  0  0  0  0  0  0  0  0  0  0  0
  1  2  2  0
  2  3  1  0
  2  4  1  0
  3  5  1  0
  4  6  4  0
  4  7  4  0
  5  8  1  0
  6  9  4  0
  7 10  4  0
  8 11  1  0
  8 12  1  0
  9 13  4  0
 11 14  1  0
 11 15  1  0
 12 16  4  0
 12 17  4  0
 13 18  1  0
 14 19  1  0
 15 20  1  0
 16 21  4  0
 17 22  4  0
 18 23  1  0
 19 24  1  0
 21 25  4  0
 24 26  1  0
 26 27  1  0
 27 28  1  1
 27 29  1  0
 29 30  1  0
 30 31  1  0
 31 32  4  0
 31 33  4  0
 32 34  4  0
 33 35  4  0
 34 36  4  0
 36 37  1  0
 37 38  1  0
 10 13  4  0
 20 24  1  0
 22 25  4  0
 35 36  4  0
M  END
