
     RDKit          3D

 20 23  0  0  0  0  0  0  0  0999 V2000
    7.9914   -0.6669    2.8374 O   0  0  0  0  0  0  0  0  0  0  0  0
    8.3047    0.5125    2.9292 C   0  0  0  0  0  0  0  0  0  0  0  0
    7.3964    1.6103    3.4534 C   0  0  1  0  0  0  0  0  0  0  0  0
    9.6749    1.0570    2.5605 C   0  0  0  0  0  0  0  0  0  0  0  0
    8.0534    2.8041    2.7347 C   0  0  2  0  0  0  0  0  0  0  0  0
    5.9368    1.5562    3.0153 C   0  0  0  0  0  0  0  0  0  0  0  0
    7.5263    1.5942    4.9873 C   0  0  0  0  0  0  0  0  0  0  0  0
    9.5502    2.5538    2.8817 C   0  0  0  0  0  0  0  0  0  0  0  0
    7.4613    4.1419    3.1844 C   0  0  2  0  0  0  0  0  0  0  0  0
    5.2094    2.8656    3.3707 C   0  0  0  0  0  0  0  0  0  0  0  0
    5.9314    4.1496    2.8731 C   0  0  1  0  0  0  0  0  0  0  0  0
    8.1635    5.3211    2.4944 C   0  0  0  0  0  0  0  0  0  0  0  0
    5.2613    5.4943    3.3541 C   0  0  1  0  0  0  0  0  0  0  0  0
    7.3755    6.5939    2.4972 C   0  0  0  0  0  0  0  0  0  0  0  0
    6.0840    6.6943    2.8582 C   0  0  0  0  0  0  0  0  0  0  0  0
    3.8268    5.5960    2.7637 C   0  0  0  0  0  0  0  0  0  0  0  0
    5.1828    5.5665    4.9008 C   0  0  0  0  0  0  0  0  0  0  0  0
    5.4069    7.9763    2.7465 C   0  0  0  0  0  0  0  0  0  0  0  0
    3.1495    6.9444    3.0332 C   0  0  0  0  0  0  0  0  0  0  0  0
    4.0767    8.1044    2.8434 C   0  0  0  0  0  0  0  0  0  0  0  0
  1  2  2  0
  2  3  1  0
  2  4  1  0
  3  5  1  0
  3  6  1  0
  3  7  1  1
  4  8  1  0
  5  9  1  0
  6 10  1  0
  9 11  1  0
  9 12  1  6
 11 13  1  0
 12 14  1  0
 13 15  1  0
 13 16  1  0
 13 17  1  1
 15 18  1  0
 16 19  1  0
 18 20  2  0
  5  8  1  1
 11 10  1  1
 14 15  2  0
 19 20  1  0
M  END
