
     RDKit          3D

 40 43  0  0  0  0  0  0  0  0999 V2000
    3.6787    7.8817   -1.1022 Br  0  0  0  0  0  0  0  0  0  0  0  0
    4.2755    7.1339    0.5267 C   0  0  0  0  0  0  0  0  0  0  0  0
    5.6232    7.2060    0.8697 C   0  0  0  0  0  0  0  0  0  0  0  0
    3.3621    6.5166    1.3806 C   0  0  0  0  0  0  0  0  0  0  0  0
    6.0603    6.6556    2.0774 C   0  0  0  0  0  0  0  0  0  0  0  0
    3.8060    5.9532    2.5796 C   0  0  0  0  0  0  0  0  0  0  0  0
    5.1599    6.0065    2.9239 C   0  0  0  0  0  0  0  0  0  0  0  0
    5.6869    5.5029    4.0816 O   0  0  0  0  0  0  0  0  0  0  0  0
    7.0633    5.1007    4.0100 C   0  0  0  0  0  0  0  0  0  0  0  0
    7.1874    3.5799    3.8334 C   0  0  2  0  0  0  0  0  0  0  0  0
    8.1067    3.2836    2.7724 O   0  0  0  0  0  0  0  0  0  0  0  0
    5.8137    2.9695    3.4877 C   0  0  0  0  0  0  0  0  0  0  0  0
    5.6632    1.5487    3.8822 N   0  0  0  0  0  0  0  0  0  0  0  0
    6.5494    0.6396    3.1290 C   0  0  0  0  0  0  0  0  0  0  0  0
    5.9322    1.4229    5.3342 C   0  0  0  0  0  0  0  0  0  0  0  0
    6.5081   -0.8198    3.6606 C   0  0  0  0  0  0  0  0  0  0  0  0
    5.9045   -0.0382    5.8326 C   0  0  0  0  0  0  0  0  0  0  0  0
    6.7899   -0.9634    5.1121 N   0  0  0  0  0  0  0  0  0  0  0  0
    8.2440   -0.8467    5.4054 C   0  0  2  0  0  0  0  0  0  0  0  0
    9.0477   -1.5034    4.2735 C   0  0  0  0  0  0  0  0  0  0  0  0
    8.7480   -1.4965    6.7418 C   0  0  0  0  0  0  0  0  0  0  0  0
    8.9289   -2.8793    4.0172 C   0  0  0  0  0  0  0  0  0  0  0  0
    9.8909   -0.7337    3.4495 C   0  0  0  0  0  0  0  0  0  0  0  0
    7.6289   -1.7342    7.6802 N   0  0  0  0  0  0  0  0  0  0  0  0
    9.6471   -3.4669    2.9689 C   0  0  0  0  0  0  0  0  0  0  0  0
   10.6100   -1.3247    2.4085 C   0  0  0  0  0  0  0  0  0  0  0  0
    6.8581   -3.2292    7.6407 S   0  0  0  0  0  0  0  0  0  0  0  0
   10.4860   -2.6916    2.1666 C   0  0  0  0  0  0  0  0  0  0  0  0
    5.6052   -3.0900    8.3491 O   0  0  0  0  0  0  0  0  0  0  0  0
    6.8923   -3.6747    6.2656 O   0  0  0  0  0  0  0  0  0  0  0  0
    7.9371   -4.2657    8.5784 C   0  0  0  0  0  0  0  0  0  0  0  0
    9.1634   -4.6809    8.0572 C   0  0  0  0  0  0  0  0  0  0  0  0
    7.5228   -4.7031    9.8442 C   0  0  0  0  0  0  0  0  0  0  0  0
    9.5968   -4.2191    6.8454 O   0  0  0  0  0  0  0  0  0  0  0  0
    9.9988   -5.4894    8.8319 C   0  0  0  0  0  0  0  0  0  0  0  0
    8.3433   -5.5419   10.6024 C   0  0  0  0  0  0  0  0  0  0  0  0
   10.9771   -3.8453    6.8805 C   0  0  0  0  0  0  0  0  0  0  0  0
    9.5872   -5.9243   10.0977 C   0  0  0  0  0  0  0  0  0  0  0  0
    7.8241   -5.8982   11.8164 O   0  0  0  0  0  0  0  0  0  0  0  0
    6.6771   -6.7416   11.8012 C   0  0  0  0  0  0  0  0  0  0  0  0
  1  2  1  0
  2  3  4  0
  2  4  4  0
  3  5  4  0
  4  6  4  0
  5  7  4  0
  7  8  1  0
  8  9  1  0
  9 10  1  0
 10 11  1  6
 10 12  1  0
 12 13  1  0
 13 14  1  0
 13 15  1  0
 14 16  1  0
 15 17  1  0
 16 18  1  0
 18 19  1  0
 19 20  1  0
 19 21  1  1
 20 22  4  0
 20 23  4  0
 21 24  1  0
 22 25  4  0
 23 26  4  0
 24 27  1  0
 25 28  4  0
 27 29  2  0
 27 30  2  0
 27 31  1  0
 31 32  4  0
 31 33  4  0
 32 34  1  0
 32 35  4  0
 33 36  4  0
 34 37  1  0
 35 38  4  0
 36 39  1  0
 39 40  1  0
  6  7  4  0
 17 18  1  0
 26 28  4  0
 36 38  4  0
M  END
