
     RDKit          3D

 29 33  0  0  0  0  0  0  0  0999 V2000
    6.7844    6.2434    3.0881 O   0  0  0  0  0  0  0  0  0  0  0  0
    7.3275    4.9951    3.0082 C   0  0  0  0  0  0  0  0  0  0  0  0
    6.9742    4.0709    3.9850 C   0  0  0  0  0  0  0  0  0  0  0  0
    8.2055    4.6519    1.9916 C   0  0  0  0  0  0  0  0  0  0  0  0
    7.4891    2.7616    3.9610 C   0  0  0  0  0  0  0  0  0  0  0  0
    8.7417    3.3654    1.9639 C   0  0  0  0  0  0  0  0  0  0  0  0
    8.3956    2.4130    2.9420 C   0  0  0  0  0  0  0  0  0  0  0  0
    7.0679    1.7778    5.0407 C   0  0  0  0  0  0  0  0  0  0  0  0
    9.0533    1.0453    2.8919 C   0  0  0  0  0  0  0  0  0  0  0  0
    7.8415    0.4431    5.0102 C   0  0  0  0  0  0  0  0  0  0  0  0
    5.5323    1.5672    5.1136 C   0  0  0  0  0  0  0  0  0  0  0  0
    8.2053   -0.0283    3.5881 C   0  0  2  0  0  0  0  0  0  0  0  0
   10.4920    1.1361    3.4320 C   0  0  0  0  0  0  0  0  0  0  0  0
    4.8278    1.3493    3.7717 C   0  0  0  0  0  0  0  0  0  0  0  0
    8.8740   -1.4312    3.6258 C   0  0  0  0  0  0  0  0  0  0  0  0
   11.0603   -0.1705    3.9879 C   0  0  0  0  0  0  0  0  0  0  0  0
    4.7406    2.6538    2.9740 C   0  0  0  0  0  0  0  0  0  0  0  0
   10.4132   -1.4502    3.4367 C   0  0  2  0  0  0  0  0  0  0  0  0
    8.3835   -2.3513    2.4976 C   0  0  0  0  0  0  0  0  0  0  0  0
    4.1205    3.7605    3.7899 C   0  0  0  0  0  0  0  0  0  0  0  0
   10.6241   -1.5965    1.9009 C   0  0  2  0  0  0  0  0  0  0  0  0
   11.0122   -2.6511    4.2065 C   0  0  0  0  0  0  0  0  0  0  0  0
    9.2968   -2.0813    1.3127 C   0  0  0  0  0  0  0  0  0  0  0  0
    3.7986    4.9881    3.1962 C   0  0  0  0  0  0  0  0  0  0  0  0
    3.8867    3.5854    5.1604 C   0  0  0  0  0  0  0  0  0  0  0  0
   11.6686   -2.5085    1.5877 O   0  0  0  0  0  0  0  0  0  0  0  0
    3.2419    6.0170    3.9575 C   0  0  0  0  0  0  0  0  0  0  0  0
    3.3300    4.6154    5.9201 C   0  0  0  0  0  0  0  0  0  0  0  0
    3.0066    5.8302    5.3185 C   0  0  0  0  0  0  0  0  0  0  0  0
  1  2  1  0
  2  3  4  0
  2  4  4  0
  3  5  4  0
  4  6  4  0
  5  7  4  0
  5  8  1  0
  7  9  1  0
  8 10  1  0
  8 11  1  0
  9 12  1  0
  9 13  1  0
 11 14  1  0
 12 15  1  0
 13 16  1  0
 14 17  1  0
 15 18  1  0
 15 19  1  0
 17 20  1  0
 18 21  1  0
 18 22  1  1
 19 23  1  0
 20 24  4  0
 20 25  4  0
 21 26  1  1
 24 27  4  0
 25 28  4  0
 27 29  4  0
  6  7  4  0
 12 10  1  1
 16 18  1  0
 21 23  1  0
 28 29  4  0
M  END
