
     RDKit          3D

 29 33  0  0  0  0  0  0  0  0999 V2000
   10.2714    1.1352    0.2682 O   0  0  0  0  0  0  0  0  0  0  0  0
    9.4595    0.7776    1.1202 C   0  0  0  0  0  0  0  0  0  0  0  0
    9.0136    1.7317    2.1595 C   0  0  0  0  0  0  0  0  0  0  0  0
    8.7820   -0.5703    1.0926 C   0  0  0  0  0  0  0  0  0  0  0  0
    8.2508    1.3095    3.1851 C   0  0  0  0  0  0  0  0  0  0  0  0
    8.6867   -1.1049    2.5114 C   0  0  0  0  0  0  0  0  0  0  0  0
    7.5219    2.2969    3.9573 C   0  0  0  0  0  0  0  0  0  0  0  0
    7.9464   -0.1502    3.4985 C   0  0  2  0  0  0  0  0  0  0  0  0
    6.3013    2.0625    4.4841 C   0  0  0  0  0  0  0  0  0  0  0  0
    6.3807   -0.2842    3.4255 C   0  0  0  0  0  0  0  0  0  0  0  0
    8.5261   -0.4765    4.8984 C   0  0  0  0  0  0  0  0  0  0  0  0
    5.6165    0.6926    4.4083 C   0  0  0  0  0  0  0  0  0  0  0  0
    5.4859    3.2560    4.9644 C   0  0  0  0  0  0  0  0  0  0  0  0
    5.8781   -1.7371    3.5291 C   0  0  0  0  0  0  0  0  0  0  0  0
    5.3095   -0.0567    5.7518 C   0  0  0  0  0  0  0  0  0  0  0  0
    5.4698    4.4161    3.9885 C   0  0  0  0  0  0  0  0  0  0  0  0
    4.4551   -1.8130    4.0596 C   0  0  0  0  0  0  0  0  0  0  0  0
    4.3824   -1.2896    5.4999 C   0  0  2  0  0  0  0  0  0  0  0  0
    4.5535    0.7149    6.8431 C   0  0  0  0  0  0  0  0  0  0  0  0
    4.2734    4.8309    3.3836 C   0  0  0  0  0  0  0  0  0  0  0  0
    6.6554    5.0998    3.6769 C   0  0  0  0  0  0  0  0  0  0  0  0
    3.0056   -0.6999    5.7868 C   0  0  0  0  0  0  0  0  0  0  0  0
    4.6497   -2.4147    6.5083 C   0  0  0  0  0  0  0  0  0  0  0  0
    3.0855    0.6472    6.4534 C   0  0  0  0  0  0  0  0  0  0  0  0
    4.2630    5.9191    2.5070 C   0  0  0  0  0  0  0  0  0  0  0  0
    6.6405    6.1781    2.7879 C   0  0  0  0  0  0  0  0  0  0  0  0
    1.9428   -1.2393    5.4897 O   0  0  0  0  0  0  0  0  0  0  0  0
    5.4369    6.6320    2.2389 C   0  0  0  0  0  0  0  0  0  0  0  0
    5.4386    7.6459    1.2720 N   0  0  0  0  0  0  0  0  0  0  0  0
  1  2  2  0
  2  3  1  0
  2  4  1  0
  3  5  2  0
  4  6  1  0
  5  7  1  0
  5  8  1  0
  7  9  2  0
  8 10  1  0
  8 11  1  1
  9 12  1  0
  9 13  1  0
 10 14  1  0
 12 15  1  0
 13 16  1  0
 14 17  1  0
 15 18  1  0
 15 19  1  0
 16 20  4  0
 16 21  4  0
 18 22  1  0
 18 23  1  1
 19 24  1  0
 20 25  4  0
 21 26  4  0
 22 27  2  0
 25 28  4  0
 28 29  1  0
  6  8  1  0
 10 12  1  0
 17 18  1  0
 22 24  1  0
 26 28  4  0
M  END
