
     RDKit          3D

 23 26  0  0  0  0  0  0  0  0999 V2000
    4.6975    8.4793    1.4787 O   0  0  0  0  0  0  0  0  0  0  0  0
    5.0074    7.5037    2.1595 C   0  0  0  0  0  0  0  0  0  0  0  0
    6.4465    7.2577    2.4237 C   0  0  0  0  0  0  0  0  0  0  0  0
    3.9995    6.5615    2.8299 C   0  0  1  0  0  0  0  0  0  0  0  0
    6.8777    6.1468    3.0466 C   0  0  0  0  0  0  0  0  0  0  0  0
    2.7169    6.5074    2.2097 O   0  0  0  0  0  0  0  0  0  0  0  0
    4.5669    5.1418    2.7833 C   0  0  0  0  0  0  0  0  0  0  0  0
    5.9582    4.9919    3.4632 C   0  0  1  0  0  0  0  0  0  0  0  0
    8.3456    5.9977    3.3725 C   0  0  0  0  0  0  0  0  0  0  0  0
    2.7821    6.3953    0.7938 C   0  0  0  0  0  0  0  0  0  0  0  0
    6.5966    3.6268    2.9972 C   0  0  1  0  0  0  0  0  0  0  0  0
    5.7739    5.0481    4.9970 C   0  0  0  0  0  0  0  0  0  0  0  0
    8.9078    4.6726    2.8725 C   0  0  0  0  0  0  0  0  0  0  0  0
    8.0981    3.4871    3.4112 C   0  0  2  0  0  0  0  0  0  0  0  0
    5.7637    2.3732    3.3897 C   0  0  0  0  0  0  0  0  0  0  0  0
    8.6227    2.1525    2.8747 C   0  0  2  0  0  0  0  0  0  0  0  0
    6.4124    1.0387    2.9770 C   0  0  0  0  0  0  0  0  0  0  0  0
    7.8530    0.9561    3.4701 C   0  0  1  0  0  0  0  0  0  0  0  0
   10.0901    1.7811    3.0592 C   0  0  0  0  0  0  0  0  0  0  0  0
    8.7049   -0.1615    2.8958 C   0  0  0  0  0  0  0  0  0  0  0  0
    7.9137    0.8111    5.0019 C   0  0  0  0  0  0  0  0  0  0  0  0
   10.1242    0.3082    2.6247 C   0  0  0  0  0  0  0  0  0  0  0  0
    8.3146   -1.3046    2.7001 O   0  0  0  0  0  0  0  0  0  0  0  0
  1  2  2  0
  2  3  1  0
  2  4  1  0
  3  5  2  0
  4  6  1  6
  4  7  1  0
  5  8  1  0
  5  9  1  0
  6 10  1  0
  8 11  1  0
  8 12  1  1
  9 13  1  0
 11 14  1  0
 11 15  1  1
 14 16  1  0
 15 17  1  0
 16 18  1  0
 16 19  1  1
 18 20  1  0
 18 21  1  1
 19 22  1  0
 20 23  2  0
  7  8  1  0
 14 13  1  6
 17 18  1  0
 20 22  1  0
M  END
