
     RDKit          3D

 23 27  0  0  0  0  0  0  0  0999 V2000
    3.1613    7.4795    1.2270 O   0  0  0  0  0  0  0  0  0  0  0  0
    3.7579    6.6449    1.9027 C   0  0  0  0  0  0  0  0  0  0  0  0
    5.1640    6.3110    1.5690 C   0  0  0  0  0  0  0  0  0  0  0  0
    3.1233    5.9812    3.1002 C   0  0  0  0  0  0  0  0  0  0  0  0
    5.9025    5.4866    2.3359 C   0  0  0  0  0  0  0  0  0  0  0  0
    3.8155    4.6568    3.4146 C   0  0  0  0  0  0  0  0  0  0  0  0
    5.3582    4.8136    3.6089 C   0  0  1  0  0  0  0  0  0  0  0  0
    7.3369    5.2156    1.9585 C   0  0  0  0  0  0  0  0  0  0  0  0
    6.0593    3.4052    3.8119 C   0  0  2  0  0  0  0  0  0  0  0  0
    5.5714    5.7361    4.8323 C   0  0  0  0  0  0  0  0  0  0  0  0
    8.1713    4.7921    3.1585 C   0  0  0  0  0  0  0  0  0  0  0  0
    7.6393    3.5024    3.8117 C   0  0  0  0  0  0  0  0  0  0  0  0
    5.5597    2.2895    2.8456 C   0  0  0  0  0  0  0  0  0  0  0  0
    5.4300    5.1589    6.1373 O   0  0  0  0  0  0  0  0  0  0  0  0
    4.4377    6.1175    5.7653 C   0  0  0  0  0  0  0  0  0  0  0  0
    8.2625    2.2573    3.1600 C   0  0  2  0  0  0  0  0  0  0  0  0
    6.1809    0.8966    3.0859 C   0  0  0  0  0  0  0  0  0  0  0  0
    7.5990    0.9586    3.6496 C   0  0  1  0  0  0  0  0  0  0  0  0
    9.7592    2.0116    3.3493 C   0  0  0  0  0  0  0  0  0  0  0  0
    8.5821   -0.0426    3.0641 C   0  0  0  0  0  0  0  0  0  0  0  0
    7.6066    0.7371    5.1726 C   0  0  0  0  0  0  0  0  0  0  0  0
    9.9450    0.5801    2.8339 C   0  0  0  0  0  0  0  0  0  0  0  0
    8.3218   -1.2149    2.8256 O   0  0  0  0  0  0  0  0  0  0  0  0
  1  2  2  0
  2  3  1  0
  2  4  1  0
  3  5  2  0
  4  6  1  0
  5  7  1  0
  5  8  1  0
  7  9  1  0
  7 10  1  1
  8 11  1  0
  9 12  1  0
  9 13  1  6
 10 14  1  0
 10 15  1  0
 12 16  1  0
 13 17  1  0
 16 18  1  0
 16 19  1  1
 18 20  1  0
 18 21  1  1
 19 22  1  0
 20 23  2  0
  6  7  1  0
 11 12  1  0
 14 15  1  0
 17 18  1  0
 20 22  1  0
M  END
