
     RDKit          3D

 15 16  0  0  0  0  0  0  0  0999 V2000
    5.9940    5.7720    2.1438 S   0  0  0  0  0  0  0  0  0  0  0  0
    7.6499    5.3228    2.1973 C   0  0  0  0  0  0  0  0  0  0  0  0
    6.3500    7.3426    1.5613 C   0  0  0  0  0  0  0  0  0  0  0  0
    8.0488    3.9931    2.6732 C   0  0  0  0  0  0  0  0  0  0  0  0
    8.4545    6.3648    1.7728 C   0  0  0  0  0  0  0  0  0  0  0  0
    7.7091    7.5209    1.4004 C   0  0  0  0  0  0  0  0  0  0  0  0
    5.2412    8.3194    1.2719 C   0  0  0  0  0  0  0  0  0  0  0  0
    7.2479    3.2843    3.5683 C   0  0  0  0  0  0  0  0  0  0  0  0
    9.2425    3.3778    2.2813 C   0  0  0  0  0  0  0  0  0  0  0  0
    3.9176    7.8301    1.6969 N   0  0  0  0  0  0  0  0  0  0  0  0
    7.5460    2.0607    4.0733 N   0  0  0  0  0  0  0  0  0  0  0  0
    9.5767    2.1182    2.7778 C   0  0  0  0  0  0  0  0  0  0  0  0
    3.2476    8.7742    2.5929 C   0  0  0  0  0  0  0  0  0  0  0  0
    3.0789    7.5760    0.5248 C   0  0  0  0  0  0  0  0  0  0  0  0
    8.7049    1.5062    3.6621 C   0  0  0  0  0  0  0  0  0  0  0  0
  1  2  4  0
  1  3  4  0
  2  4  1  0
  2  5  4  0
  3  6  4  0
  3  7  1  0
  4  8  4  0
  4  9  4  0
  7 10  1  0
  8 11  4  0
  9 12  4  0
 10 13  1  0
 10 14  1  0
 11 15  4  0
  5  6  4  0
 12 15  4  0
M  END
