
     RDKit          3D

 21 24  0  0  0  0  0  0  0  0999 V2000
    5.6054   -0.2627    5.0263 O   0  0  0  0  0  0  0  0  0  0  0  0
    6.3509    0.5946    4.5699 C   0  0  0  0  0  0  0  0  0  0  0  0
    5.9225    2.0105    4.2027 C   0  0  0  0  0  0  0  0  0  0  0  0
    7.8222    0.3570    4.2730 C   0  0  0  0  0  0  0  0  0  0  0  0
    7.3044    2.6875    4.3080 C   0  0  0  0  0  0  0  0  0  0  0  0
    4.9466    2.6816    5.1785 C   0  0  0  0  0  0  0  0  0  0  0  0
    5.3122    1.9083    2.7964 C   0  0  0  0  0  0  0  0  0  0  0  0
    8.2775    1.6962    3.6787 C   0  0  0  0  0  0  0  0  0  0  0  0
    7.3160    4.1659    3.8871 C   0  0  0  0  0  0  0  0  0  0  0  0
    5.3638    4.1171    5.5535 C   0  0  0  0  0  0  0  0  0  0  0  0
    6.0407    4.9177    4.4092 C   0  0  0  0  0  0  0  0  0  0  0  0
    7.6452    4.4008    2.4059 C   0  0  0  0  0  0  0  0  0  0  0  0
    5.1291    5.4315    3.2975 C   0  0  0  0  0  0  0  0  0  0  0  0
    7.2260    5.8023    1.9442 C   0  0  0  0  0  0  0  0  0  0  0  0
    5.7159    5.9017    2.0960 C   0  0  0  0  0  0  0  0  0  0  0  0
    3.7353    5.5320    3.4534 C   0  0  0  0  0  0  0  0  0  0  0  0
    7.7744    6.0550    0.5358 C   0  0  0  0  0  0  0  0  0  0  0  0
    4.8941    6.4474    1.0966 C   0  0  0  0  0  0  0  0  0  0  0  0
    2.9306    6.0630    2.4437 C   0  0  0  0  0  0  0  0  0  0  0  0
    3.5181    6.5175    1.2741 C   0  0  0  0  0  0  0  0  0  0  0  0
    2.7727    7.0504    0.2642 O   0  0  0  0  0  0  0  0  0  0  0  0
  1  2  2  0
  2  3  1  0
  2  4  1  0
  3  5  1  0
  3  6  1  0
  3  7  1  0
  4  8  1  0
  5  9  1  0
  6 10  1  0
  9 11  1  0
  9 12  1  0
 11 13  1  0
 12 14  1  0
 13 15  4  0
 13 16  4  0
 14 17  1  0
 15 18  4  0
 16 19  4  0
 18 20  4  0
 20 21  1  0
  5  8  1  0
 11 10  1  0
 14 15  1  0
 19 20  4  0
M  END
