
     RDKit          3D

 24 28  0  0  0  0  0  0  0  0999 V2000
    3.8465    4.4345    7.0809 S   0  0  0  0  0  0  0  0  0  0  0  0
    4.9226    4.0125    5.7682 C   0  0  0  0  0  0  0  0  0  0  0  0
    3.4725    3.6477    5.6033 C   0  0  0  0  0  0  0  0  0  0  0  0
    5.5397    5.1739    5.0352 C   0  0  0  0  0  0  0  0  0  0  0  0
    5.7665    5.0415    3.4884 C   0  0  1  0  0  0  0  0  0  0  0  0
    6.5497    6.2498    2.9362 C   0  0  0  0  0  0  0  0  0  0  0  0
    6.4412    3.6914    3.0170 C   0  0  0  0  0  0  0  0  0  0  0  0
    4.3359    5.0696    2.8296 C   0  0  0  0  0  0  0  0  0  0  0  0
    5.9546    7.3482    2.4323 C   0  0  0  0  0  0  0  0  0  0  0  0
    8.0600    6.1918    2.9288 C   0  0  0  0  0  0  0  0  0  0  0  0
    7.9970    3.6688    3.1344 C   0  0  2  0  0  0  0  0  0  0  0  0
    5.7896    2.4064    3.5988 C   0  0  0  0  0  0  0  0  0  0  0  0
    3.6214    6.4119    2.9310 C   0  0  0  0  0  0  0  0  0  0  0  0
    4.4848    7.5206    2.3966 C   0  0  0  0  0  0  0  0  0  0  0  0
    8.5971    4.8709    2.3975 C   0  0  0  0  0  0  0  0  0  0  0  0
    8.4989    2.3498    2.5304 C   0  0  2  0  0  0  0  0  0  0  0  0
    6.4296    1.1016    3.0860 C   0  0  0  0  0  0  0  0  0  0  0  0
    4.0123    8.5733    1.9748 O   0  0  0  0  0  0  0  0  0  0  0  0
    7.9431    1.1190    3.2736 C   0  0  1  0  0  0  0  0  0  0  0  0
    9.9957    2.0768    2.4242 C   0  0  0  0  0  0  0  0  0  0  0  0
    8.7326    0.0484    2.5417 C   0  0  0  0  0  0  0  0  0  0  0  0
    8.3255    0.9994    4.7581 C   0  0  0  0  0  0  0  0  0  0  0  0
   10.0409    0.6003    2.0001 C   0  0  0  0  0  0  0  0  0  0  0  0
    8.3808   -1.1175    2.4245 O   0  0  0  0  0  0  0  0  0  0  0  0
  1  2  1  0
  1  3  1  0
  2  4  1  0
  5  4  1  1
  5  6  1  0
  5  7  1  0
  5  8  1  0
  6  9  2  0
  6 10  1  0
  7 11  1  0
  7 12  1  0
  8 13  1  0
  9 14  1  0
 10 15  1  0
 11 16  1  0
 12 17  1  0
 14 18  2  0
 16 19  1  0
 16 20  1  1
 19 21  1  0
 19 22  1  1
 20 23  1  0
 21 24  2  0
  2  3  1  0
 11 15  1  6
 13 14  1  0
 17 19  1  0
 21 23  1  0
M  END
