
     RDKit          3D

 22 25  0  0  0  0  0  0  0  0999 V2000
    8.9297    0.6908    3.3266 O   0  0  0  0  0  0  0  0  0  0  0  0
    8.3060    1.7362    3.5206 C   0  0  0  0  0  0  0  0  0  0  0  0
    8.9236    3.0586    3.1227 C   0  0  0  0  0  0  0  0  0  0  0  0
    6.9659    1.7511    4.1969 C   0  0  0  0  0  0  0  0  0  0  0  0
   10.2529    2.9830    2.7325 N   0  0  0  0  0  0  0  0  0  0  0  0
    8.1871    4.1890    3.1910 C   0  0  0  0  0  0  0  0  0  0  0  0
    6.0830    2.7969    3.5440 C   0  0  0  0  0  0  0  0  0  0  0  0
    6.6940    4.2260    3.5802 C   0  0  2  0  0  0  0  0  0  0  0  0
    8.8101    5.5487    2.9294 C   0  0  0  0  0  0  0  0  0  0  0  0
    5.9047    5.1217    2.5469 C   0  0  2  0  0  0  0  0  0  0  0  0
    6.5788    4.7737    5.0224 C   0  0  0  0  0  0  0  0  0  0  0  0
    8.0260    6.3493    1.8970 C   0  0  0  0  0  0  0  0  0  0  0  0
    6.5657    6.5197    2.3261 C   0  0  1  0  0  0  0  0  0  0  0  0
    4.3820    5.2402    2.8433 C   0  0  0  0  0  0  0  0  0  0  0  0
    5.7500    7.2788    1.2763 C   0  0  0  0  0  0  0  0  0  0  0  0
    3.6235    6.1503    1.8590 C   0  0  0  0  0  0  0  0  0  0  0  0
    4.2988    7.5124    1.7424 C   0  0  2  0  0  0  0  0  0  0  0  0
    6.2130    8.6502    0.7966 C   0  0  0  0  0  0  0  0  0  0  0  0
    3.8424    8.4021    0.6003 C   0  0  0  0  0  0  0  0  0  0  0  0
    4.1292    8.3339    3.0337 C   0  0  0  0  0  0  0  0  0  0  0  0
    5.0117    9.1462   -0.0224 C   0  0  0  0  0  0  0  0  0  0  0  0
    2.6804    8.5300    0.2387 O   0  0  0  0  0  0  0  0  0  0  0  0
  1  2  2  0
  2  3  1  0
  2  4  1  0
  3  5  1  0
  3  6  2  0
  4  7  1  0
  6  8  1  0
  6  9  1  0
  8 10  1  0
  8 11  1  1
  9 12  1  0
 10 13  1  0
 10 14  1  1
 13 15  1  0
 14 16  1  0
 15 17  1  0
 15 18  1  0
 17 19  1  0
 17 20  1  1
 18 21  1  0
 19 22  2  0
  7  8  1  0
 13 12  1  6
 16 17  1  0
 19 21  1  0
M  END
