
     RDKit          3D

 32 36  0  0  0  0  0  0  0  0999 V2000
   10.1918   -2.9005   -0.5852 S   0  0  0  0  0  0  0  0  0  0  0  0
   11.5371   -3.2211   -1.0055 O   0  0  0  0  0  0  0  0  0  0  0  0
    9.4189   -3.8237    0.2141 O   0  0  0  0  0  0  0  0  0  0  0  0
   10.1525   -1.4323    0.1210 O   0  0  0  0  0  0  0  0  0  0  0  0
    9.3144   -2.7390   -2.0114 N   0  0  0  0  0  0  0  0  0  0  0  0
    9.0780   -1.0888    0.8955 C   0  0  0  0  0  0  0  0  0  0  0  0
    9.2245   -0.8154    2.2522 C   0  0  0  0  0  0  0  0  0  0  0  0
    7.8160   -1.0878    0.3082 C   0  0  0  0  0  0  0  0  0  0  0  0
    8.1015   -0.4994    3.0202 C   0  0  0  0  0  0  0  0  0  0  0  0
    6.6937   -0.7739    1.0769 C   0  0  0  0  0  0  0  0  0  0  0  0
    6.8191   -0.4762    2.4454 C   0  0  0  0  0  0  0  0  0  0  0  0
    5.5663   -0.1161    3.2495 C   0  0  0  0  0  0  0  0  0  0  0  0
    5.6121   -0.5111    4.7271 C   0  0  0  0  0  0  0  0  0  0  0  0
    5.2041    1.3650    3.0131 C   0  0  0  0  0  0  0  0  0  0  0  0
    6.0715   -1.7276    5.0869 C   0  0  0  0  0  0  0  0  0  0  0  0
    5.0207    0.4770    5.7409 C   0  0  2  0  0  0  0  0  0  0  0  0
    5.8952    2.2991    4.0098 C   0  0  2  0  0  0  0  0  0  0  0  0
    6.0132   -2.2301    6.4796 C   0  0  0  0  0  0  0  0  0  0  0  0
    5.5294    1.9609    5.4848 C   0  0  0  0  0  0  0  0  0  0  0  0
    5.4757    0.0896    7.1859 C   0  0  0  0  0  0  0  0  0  0  0  0
    3.4794    0.3269    5.6697 C   0  0  0  0  0  0  0  0  0  0  0  0
    5.7135    3.7827    3.6188 C   0  0  0  0  0  0  0  0  0  0  0  0
    6.4722   -3.3392    6.7416 O   0  0  0  0  0  0  0  0  0  0  0  0
    5.3146   -1.3876    7.5118 C   0  0  0  0  0  0  0  0  0  0  0  0
    4.6574    3.0461    6.1602 C   0  0  0  0  0  0  0  0  0  0  0  0
    4.3631    4.4148    4.0327 C   0  0  0  0  0  0  0  0  0  0  0  0
    6.8034    4.6686    4.2527 C   0  0  0  0  0  0  0  0  0  0  0  0
    3.6714    3.7061    5.2039 C   0  0  0  0  0  0  0  0  0  0  0  0
    4.7791    5.8300    4.4294 C   0  0  0  0  0  0  0  0  0  0  0  0
    3.4062    4.5325    2.8397 C   0  0  0  0  0  0  0  0  0  0  0  0
    6.2464    6.0783    4.2298 C   0  0  0  0  0  0  0  0  0  0  0  0
    4.0026    6.6938    4.8211 O   0  0  0  0  0  0  0  0  0  0  0  0
  1  2  2  0
  1  3  2  0
  1  4  1  0
  1  5  1  0
  4  6  1  0
  6  7  4  0
  6  8  4  0
  7  9  4  0
  8 10  4  0
  9 11  4  0
 12 11  1  0
 12 13  1  0
 12 14  1  0
 13 15  2  0
 13 16  1  0
 17 14  1  6
 15 18  1  0
 16 19  1  0
 16 20  1  0
 16 21  1  1
 17 22  1  0
 18 23  2  0
 18 24  1  0
 19 25  1  0
 22 26  1  0
 22 27  1  0
 25 28  1  0
 26 29  1  0
 26 30  1  0
 27 31  1  0
 29 32  2  0
 10 11  4  0
 17 19  1  0
 20 24  1  0
 26 28  1  0
 29 31  1  0
M  END
