
     RDKit          3D

 13 14  0  0  0  0  0  0  0  0999 V2000
    3.3458    6.8141    1.7101 N   0  0  0  0  0  0  0  0  0  0  0  0
    4.4800    6.2016    2.1395 C   0  0  0  0  0  0  0  0  0  0  0  0
    3.4592    7.5945    0.6151 C   0  0  0  0  0  0  0  0  0  0  0  0
    5.7269    6.3260    1.5321 C   0  0  0  0  0  0  0  0  0  0  0  0
    4.6472    7.7906   -0.0673 C   0  0  0  0  0  0  0  0  0  0  0  0
    6.9123    5.6378    2.0451 C   0  0  0  0  0  0  0  0  0  0  0  0
    5.7921    7.1468    0.4003 C   0  0  0  0  0  0  0  0  0  0  0  0
    8.0735    6.2873    2.2404 N   0  0  0  0  0  0  0  0  0  0  0  0
    7.0555    4.2691    2.4030 C   0  0  0  0  0  0  0  0  0  0  0  0
    8.9157    5.3556    2.7071 N   0  0  0  0  0  0  0  0  0  0  0  0
    8.3562    4.1179    2.8348 C   0  0  0  0  0  0  0  0  0  0  0  0
    9.1183    2.9467    3.3216 C   0  0  0  0  0  0  0  0  0  0  0  0
   10.4981    3.0306    2.8745 N   0  0  0  0  0  0  0  0  0  0  0  0
  1  2  4  0
  1  3  4  0
  2  4  4  0
  3  5  4  0
  4  6  1  0
  4  7  4  0
  6  8  4  0
  6  9  4  0
  8 10  4  0
  9 11  4  0
 11 12  1  0
 12 13  1  0
  5  7  4  0
 10 11  4  0
M  END
