
     RDKit          3D

 36 40  0  0  0  0  0  0  0  0999 V2000
    8.1389    4.9803    1.6369 F   0  0  0  0  0  0  0  0  0  0  0  0
    6.9947    4.8773    2.3256 C   0  0  0  0  0  0  0  0  0  0  0  0
    6.8468    3.8559    3.2587 C   0  0  0  0  0  0  0  0  0  0  0  0
    5.9771    5.7931    2.0881 C   0  0  0  0  0  0  0  0  0  0  0  0
    5.6564    3.7379    3.9747 C   0  0  0  0  0  0  0  0  0  0  0  0
    4.7736    5.6931    2.7953 C   0  0  0  0  0  0  0  0  0  0  0  0
    5.4128    2.7287    4.9274 N   0  0  0  0  0  0  0  0  0  0  0  0
    4.6217    4.6533    3.7311 C   0  0  0  0  0  0  0  0  0  0  0  0
    3.6644    6.6827    2.5434 C   0  0  0  0  0  0  0  0  0  0  0  0
    5.2891    1.3760    4.6908 C   0  0  0  0  0  0  0  0  0  0  0  0
    2.9215    6.9513    3.6538 F   0  0  0  0  0  0  0  0  0  0  0  0
    4.1231    7.8854    2.1027 F   0  0  0  0  0  0  0  0  0  0  0  0
    2.7837    6.2473    1.6011 F   0  0  0  0  0  0  0  0  0  0  0  0
    4.5309    0.8401    3.8943 O   0  0  0  0  0  0  0  0  0  0  0  0
    6.1774    0.6646    5.4785 N   0  0  0  0  0  0  0  0  0  0  0  0
    6.7234   -0.6136    5.0110 C   0  0  0  0  0  0  0  0  0  0  0  0
    5.7192   -1.7696    5.1960 C   0  0  0  0  0  0  0  0  0  0  0  0
    8.1014   -0.8867    5.6420 C   0  0  0  0  0  0  0  0  0  0  0  0
    5.9324   -2.5894    6.4805 C   0  0  0  0  0  0  0  0  0  0  0  0
    8.0662   -1.8202    6.8654 C   0  0  0  0  0  0  0  0  0  0  0  0
    7.3146   -3.0573    6.6244 N   0  0  0  0  0  0  0  0  0  0  0  0
    5.8100   -1.7285    7.7427 C   0  0  0  0  0  0  0  0  0  0  0  0
    7.2339   -1.2291    8.0077 C   0  0  0  0  0  0  0  0  0  0  0  0
    7.7943   -3.9211    5.5486 C   0  0  0  0  0  0  0  0  0  0  0  0
    9.2982   -4.0624    5.4752 C   0  0  0  0  0  0  0  0  0  0  0  0
   10.0220   -4.2833    4.3210 C   0  0  0  0  0  0  0  0  0  0  0  0
   10.0319   -3.9841    6.8892 C   0  0  0  0  0  0  0  0  0  0  0  0
   11.5800   -4.2927    4.2546 C   0  0  1  0  0  0  0  0  0  0  0  0
   11.4114   -4.4927    6.5524 C   0  0  1  0  0  0  0  0  0  0  0  0
   11.9048   -3.6424    5.4803 N   0  0  0  0  0  0  0  0  0  0  0  0
   12.3509   -5.6664    4.3645 C   0  0  0  0  0  0  0  0  0  0  0  0
   12.6117   -5.2318    7.0537 C   0  0  0  0  0  0  0  0  0  0  0  0
   12.3917   -2.3781    5.7001 C   0  0  0  0  0  0  0  0  0  0  0  0
   13.2485   -5.8214    5.7053 C   0  0  0  0  0  0  0  0  0  0  0  0
   11.6560   -1.4292    5.9733 O   0  0  0  0  0  0  0  0  0  0  0  0
   13.8831   -2.1983    5.6061 C   0  0  0  0  0  0  0  0  0  0  0  0
  1  2  1  0
  2  3  4  0
  2  4  4  0
  3  5  4  0
  4  6  4  0
  5  7  1  0
  5  8  4  0
  6  9  1  0
  7 10  1  0
  9 11  1  0
  9 12  1  0
  9 13  1  0
 10 14  2  0
 10 15  1  0
 15 16  1  0
 16 17  1  0
 16 18  1  0
 17 19  1  0
 18 20  1  0
 19 21  1  0
 19 22  1  0
 20 23  1  0
 21 24  1  0
 24 25  1  0
 25 26  2  0
 25 27  1  0
 26 28  1  0
 29 27  1  1
 28 30  1  0
 28 31  1  1
 29 32  1  0
 30 33  1  0
 31 34  1  0
 33 35  2  0
 33 36  1  0
  6  8  4  0
 20 21  1  0
 22 23  1  0
 29 30  1  0
 32 34  1  0
M  END
