
     RDKit          3D

 28 31  0  0  0  0  0  0  0  0999 V2000
    2.4711    0.5010    1.2078 O   0  0  0  0  0  0  0  0  0  0  0  0
    3.3637    0.2782    2.0210 C   0  0  0  0  0  0  0  0  0  0  0  0
    4.2234    1.3898    2.4906 C   0  0  0  0  0  0  0  0  0  0  0  0
    3.7083   -1.1109    2.4879 C   0  0  0  0  0  0  0  0  0  0  0  0
    5.1229    1.2110    3.4769 C   0  0  0  0  0  0  0  0  0  0  0  0
    4.0393   -1.0563    3.9659 C   0  0  0  0  0  0  0  0  0  0  0  0
    6.1980    2.1996    3.7001 C   0  0  0  0  0  0  0  0  0  0  0  0
    5.2109   -0.0916    4.3078 C   0  0  1  0  0  0  0  0  0  0  0  0
    7.4068    1.7620    4.1123 C   0  0  0  0  0  0  0  0  0  0  0  0
    5.8643    3.6692    3.4658 C   0  0  0  0  0  0  0  0  0  0  0  0
    6.6192   -0.6675    3.9579 C   0  0  1  0  0  0  0  0  0  0  0  0
    5.0561    0.2067    5.8233 C   0  0  0  0  0  0  0  0  0  0  0  0
    7.7373    0.3224    4.4319 C   0  0  1  0  0  0  0  0  0  0  0  0
    7.0470    4.6312    3.2711 C   0  0  0  0  0  0  0  0  0  0  0  0
    6.9270   -2.1104    4.4206 C   0  0  0  0  0  0  0  0  0  0  0  0
    9.0574   -0.1846    3.8475 C   0  0  2  0  0  0  0  0  0  0  0  0
    6.9241    5.4996    2.0132 C   0  0  0  0  0  0  0  0  0  0  0  0
    8.3388   -2.5736    3.9957 C   0  0  0  0  0  0  0  0  0  0  0  0
    9.4114   -1.5754    4.4297 C   0  0  1  0  0  0  0  0  0  0  0  0
   10.3430    0.6195    4.0065 C   0  0  0  0  0  0  0  0  0  0  0  0
    5.5516    6.1604    1.8574 C   0  0  0  0  0  0  0  0  0  0  0  0
   10.7844   -1.7246    3.8002 C   0  0  0  0  0  0  0  0  0  0  0  0
    9.6269   -1.6399    5.9547 C   0  0  0  0  0  0  0  0  0  0  0  0
   11.4188   -0.3695    3.5303 C   0  0  0  0  0  0  0  0  0  0  0  0
    5.5461    7.1516    0.6901 C   0  0  0  0  0  0  0  0  0  0  0  0
   11.3296   -2.7942    3.5643 O   0  0  0  0  0  0  0  0  0  0  0  0
    4.1855    7.8141    0.4635 C   0  0  0  0  0  0  0  0  0  0  0  0
    3.0491    6.8208    0.2766 C   0  0  0  0  0  0  0  0  0  0  0  0
  1  2  2  0
  2  3  1  0
  2  4  1  0
  3  5  2  0
  4  6  1  0
  5  7  1  0
  5  8  1  0
  7  9  2  0
  7 10  1  0
  8 11  1  0
  8 12  1  1
 13  9  1  6
 10 14  1  0
 11 15  1  1
 13 16  1  0
 14 17  1  0
 15 18  1  0
 16 19  1  0
 16 20  1  1
 17 21  1  0
 19 22  1  0
 19 23  1  1
 20 24  1  0
 21 25  1  0
 22 26  2  0
 25 27  1  0
 27 28  1  0
  6  8  1  0
 11 13  1  0
 18 19  1  0
 22 24  1  0
M  END
