
     RDKit          3D

 26 30  0  0  0  0  0  0  0  0999 V2000
    3.0042    5.4175    4.1452 O   0  0  0  0  0  0  0  0  0  0  0  0
    3.5373    6.4553    3.7750 C   0  0  0  0  0  0  0  0  0  0  0  0
    3.3099    7.6863    4.3144 O   0  0  0  0  0  0  0  0  0  0  0  0
    4.5229    6.5574    2.6222 C   0  0  1  0  0  0  0  0  0  0  0  0
    3.0100    7.6618    5.7101 C   0  0  0  0  0  0  0  0  0  0  0  0
    4.4329    7.9805    2.0573 C   0  0  2  0  0  0  0  0  0  0  0  0
    5.9382    6.1607    3.1074 C   0  0  2  0  0  0  0  0  0  0  0  0
    3.2341    8.0960    1.2792 O   0  0  0  0  0  0  0  0  0  0  0  0
    5.6148    8.3844    1.1694 C   0  0  0  0  0  0  0  0  0  0  0  0
    7.0647    6.5848    2.1306 C   0  0  2  0  0  0  0  0  0  0  0  0
    5.9998    4.6471    3.3886 C   0  0  0  0  0  0  0  0  0  0  0  0
    6.5310    7.2116    0.8400 C   0  0  0  0  0  0  0  0  0  0  0  0
    8.0547    5.4475    1.8225 C   0  0  0  0  0  0  0  0  0  0  0  0
    7.4051    4.1600    3.8092 C   0  0  2  0  0  0  0  0  0  0  0  0
    8.4939    4.8707    3.0886 N   0  0  0  0  0  0  0  0  0  0  0  0
    7.4975    2.6693    3.6231 C   0  0  0  0  0  0  0  0  0  0  0  0
    9.7461    4.0926    2.9677 C   0  0  0  0  0  0  0  0  0  0  0  0
    6.6320    1.7476    4.1491 N   0  0  0  0  0  0  0  0  0  0  0  0
    8.4760    1.9812    2.9357 C   0  0  0  0  0  0  0  0  0  0  0  0
    9.5999    2.7093    2.2936 C   0  0  0  0  0  0  0  0  0  0  0  0
    7.0143    0.4760    3.7770 C   0  0  0  0  0  0  0  0  0  0  0  0
    8.1771    0.5961    3.0112 C   0  0  0  0  0  0  0  0  0  0  0  0
    6.4265   -0.7617    4.0659 C   0  0  0  0  0  0  0  0  0  0  0  0
    8.7830   -0.5732    2.5129 C   0  0  0  0  0  0  0  0  0  0  0  0
    7.0455   -1.9077    3.5577 C   0  0  0  0  0  0  0  0  0  0  0  0
    8.2064   -1.8178    2.7927 C   0  0  0  0  0  0  0  0  0  0  0  0
  1  2  2  0
  2  3  1  0
  4  2  1  1
  3  5  1  0
  4  6  1  0
  4  7  1  0
  6  8  1  6
  6  9  1  0
  7 10  1  0
  7 11  1  6
  9 12  1  0
 10 13  1  6
 14 11  1  6
 13 15  1  0
 14 16  1  0
 15 17  1  0
 16 18  4  0
 16 19  4  0
 17 20  1  0
 18 21  4  0
 19 22  4  0
 21 23  4  0
 22 24  4  0
 23 25  4  0
 24 26  4  0
 10 12  1  0
 14 15  1  0
 19 20  1  0
 21 22  4  0
 25 26  4  0
M  END
