
     RDKit          3D

 34 37  0  0  0  0  0  0  0  0999 V2000
    9.2916   -2.2785   -2.6098 F   0  0  0  0  0  0  0  0  0  0  0  0
   10.3049   -1.6924   -1.9161 C   0  0  0  0  0  0  0  0  0  0  0  0
   11.4102   -2.4524   -2.1528 F   0  0  0  0  0  0  0  0  0  0  0  0
   10.5372   -0.4971   -2.5250 F   0  0  0  0  0  0  0  0  0  0  0  0
    9.9889   -1.5577   -0.4461 C   0  0  0  0  0  0  0  0  0  0  0  0
    9.5576   -0.3272    0.0775 C   0  0  0  0  0  0  0  0  0  0  0  0
   10.1582   -2.6430    0.4253 C   0  0  0  0  0  0  0  0  0  0  0  0
    9.2923   -0.1741    1.4435 C   0  0  0  0  0  0  0  0  0  0  0  0
    9.8795   -2.5151    1.7951 C   0  0  0  0  0  0  0  0  0  0  0  0
    8.8509    1.0902    1.8777 N   0  0  0  0  0  0  0  0  0  0  0  0
    9.4523   -1.2714    2.2923 C   0  0  0  0  0  0  0  0  0  0  0  0
   10.0694   -3.6863    2.7303 C   0  0  0  0  0  0  0  0  0  0  0  0
    9.0890    1.6854    3.0982 C   0  0  0  0  0  0  0  0  0  0  0  0
    9.4196   -4.8060    2.3034 F   0  0  0  0  0  0  0  0  0  0  0  0
    9.6124   -3.4541    3.9918 F   0  0  0  0  0  0  0  0  0  0  0  0
   11.3772   -4.0412    2.8575 F   0  0  0  0  0  0  0  0  0  0  0  0
    9.7300    2.7068    3.3006 O   0  0  0  0  0  0  0  0  0  0  0  0
    8.4760    0.9703    4.1111 N   0  0  0  0  0  0  0  0  0  0  0  0
    7.1425    0.4001    3.9116 C   0  0  0  0  0  0  0  0  0  0  0  0
    6.6639   -0.3174    5.1798 C   0  0  0  0  0  0  0  0  0  0  0  0
    6.1521    1.4820    3.4547 C   0  0  0  0  0  0  0  0  0  0  0  0
    5.7849    0.5977    6.0307 C   0  0  0  0  0  0  0  0  0  0  0  0
    4.7296    1.1278    3.8721 C   0  0  0  0  0  0  0  0  0  0  0  0
    4.5594    1.0148    5.3292 N   0  0  0  0  0  0  0  0  0  0  0  0
    3.9965    2.2432    5.9081 C   0  0  0  0  0  0  0  0  0  0  0  0
    4.5311    3.4969    5.2736 C   0  0  0  0  0  0  0  0  0  0  0  0
    5.8368    3.7812    5.0818 C   0  0  0  0  0  0  0  0  0  0  0  0
    3.5574    4.4858    4.6757 C   0  0  0  0  0  0  0  0  0  0  0  0
    6.2590    5.0390    4.3495 C   0  0  0  0  0  0  0  0  0  0  0  0
    3.8835    6.0117    5.0025 C   0  0  0  0  0  0  0  0  0  0  0  0
    3.9948    4.8300    3.2027 C   0  0  0  0  0  0  0  0  0  0  0  0
    5.0021    5.8100    3.8903 C   0  0  0  0  0  0  0  0  0  0  0  0
    4.3652    6.3786    6.4109 C   0  0  0  0  0  0  0  0  0  0  0  0
    2.7540    6.9957    4.6346 C   0  0  0  0  0  0  0  0  0  0  0  0
  1  2  1  0
  2  3  1  0
  2  4  1  0
  2  5  1  0
  5  6  4  0
  5  7  4  0
  6  8  4  0
  7  9  4  0
  8 10  1  0
  8 11  4  0
  9 12  1  0
 10 13  1  0
 12 14  1  0
 12 15  1  0
 12 16  1  0
 13 17  2  0
 13 18  1  0
 18 19  1  0
 19 20  1  0
 19 21  1  0
 20 22  1  0
 21 23  1  0
 22 24  1  0
 24 25  1  0
 25 26  1  0
 26 27  2  0
 26 28  1  0
 27 29  1  0
 28 30  1  0
 28 31  1  0
 32 29  1  0
 30 33  1  0
 30 34  1  0
  9 11  4  0
 23 24  1  0
 30 32  1  0
 31 32  1  0
M  END
