
     RDKit          3D

 29 32  0  0  0  0  0  0  0  0999 V2000
   10.3153    1.1424   -0.5293 O   0  0  0  0  0  0  0  0  0  0  0  0
    9.9056    0.7502    0.5600 C   0  0  0  0  0  0  0  0  0  0  0  0
    9.4788    1.7364    1.5824 C   0  0  0  0  0  0  0  0  0  0  0  0
    9.7143   -0.7071    0.8784 C   0  0  0  0  0  0  0  0  0  0  0  0
    9.1044    1.3635    2.8216 C   0  0  0  0  0  0  0  0  0  0  0  0
   10.0917   -0.9391    2.3282 C   0  0  0  0  0  0  0  0  0  0  0  0
    9.2627   -0.0876    3.3360 C   0  0  2  0  0  0  0  0  0  0  0  0
    8.3938    2.3089    3.7943 C   0  0  2  0  0  0  0  0  0  0  0  0
    7.8065   -0.6321    3.5546 C   0  0  2  0  0  0  0  0  0  0  0  0
   10.0906   -0.1197    4.6488 C   0  0  0  0  0  0  0  0  0  0  0  0
    6.9804    1.7487    4.0597 C   0  0  0  0  0  0  0  0  0  0  0  0
    8.3513    3.8161    3.4296 C   0  0  0  0  0  0  0  0  0  0  0  0
    6.9931    0.2852    4.5369 C   0  0  1  0  0  0  0  0  0  0  0  0
    7.7288   -2.1279    3.9658 C   0  0  0  0  0  0  0  0  0  0  0  0
    7.3702    4.2191    2.3202 C   0  0  0  0  0  0  0  0  0  0  0  0
    5.5776   -0.2862    4.6596 C   0  0  1  0  0  0  0  0  0  0  0  0
    6.2975   -2.6221    4.2499 C   0  0  0  0  0  0  0  0  0  0  0  0
    6.0396    4.6982    2.9082 C   0  0  0  0  0  0  0  0  0  0  0  0
    5.5894   -1.7122    5.2473 C   0  0  2  0  0  0  0  0  0  0  0  0
    4.5270    0.4486    5.4851 C   0  0  0  0  0  0  0  0  0  0  0  0
    6.0343    6.2157    3.1021 C   0  0  0  0  0  0  0  0  0  0  0  0
    4.0904   -1.9010    5.3939 C   0  0  0  0  0  0  0  0  0  0  0  0
    6.1892   -1.8574    6.6582 C   0  0  0  0  0  0  0  0  0  0  0  0
    3.3779   -0.5684    5.5536 C   0  0  0  0  0  0  0  0  0  0  0  0
    5.4192    6.9786    1.9249 C   0  0  0  0  0  0  0  0  0  0  0  0
    3.5237   -2.9854    5.4107 O   0  0  0  0  0  0  0  0  0  0  0  0
    4.0121    6.5399    1.5074 C   0  0  0  0  0  0  0  0  0  0  0  0
    3.1408    6.0910    2.6807 C   0  0  0  0  0  0  0  0  0  0  0  0
    3.0198    7.1839    3.7318 C   0  0  0  0  0  0  0  0  0  0  0  0
  1  2  2  0
  2  3  1  0
  2  4  1  0
  3  5  2  0
  4  6  1  0
  5  7  1  0
  5  8  1  0
  7  9  1  0
  7 10  1  1
  8 11  1  0
  8 12  1  6
  9 13  1  0
  9 14  1  1
 12 15  1  0
 13 16  1  0
 14 17  1  0
 15 18  1  0
 16 19  1  0
 16 20  1  1
 18 21  1  0
 19 22  1  0
 19 23  1  1
 20 24  1  0
 21 25  1  0
 22 26  2  0
 25 27  1  0
 27 28  1  0
 28 29  1  0
  6  7  1  0
 13 11  1  6
 17 19  1  0
 22 24  1  0
M  END
