
     RDKit          3D

 39 42  0  0  0  0  0  0  0  0999 V2000
    8.4728   -1.5842    6.3666 O   0  0  0  0  0  0  0  0  0  0  0  0
    7.8007   -2.1656    7.2155 C   0  0  0  0  0  0  0  0  0  0  0  0
    8.2940   -2.4115    8.4934 N   0  0  0  0  0  0  0  0  0  0  0  0
    6.3389   -2.6767    7.0095 C   0  0  1  0  0  0  0  0  0  0  0  0
    8.2385   -3.7385    9.0637 C   0  0  0  0  0  0  0  0  0  0  0  0
    5.4520   -1.7344    6.2877 N   0  0  0  0  0  0  0  0  0  0  0  0
    6.2635   -4.0929    6.4323 C   0  0  0  0  0  0  0  0  0  0  0  0
    9.3832   -4.5874    8.5712 C   0  0  0  0  0  0  0  0  0  0  0  0
    5.1322   -0.5373    7.0758 C   0  0  0  0  0  0  0  0  0  0  0  0
    5.8181   -1.4593    4.8903 C   0  0  0  0  0  0  0  0  0  0  0  0
    6.8240   -4.4358    5.1901 C   0  0  0  0  0  0  0  0  0  0  0  0
    5.6071   -5.0948    7.1661 C   0  0  0  0  0  0  0  0  0  0  0  0
    9.4150   -5.0292    7.2429 C   0  0  0  0  0  0  0  0  0  0  0  0
   10.4038   -4.9914    9.4399 C   0  0  0  0  0  0  0  0  0  0  0  0
    4.8319    0.7282    6.2467 C   0  0  0  0  0  0  0  0  0  0  0  0
    6.2943   -0.0322    4.4886 C   0  0  0  0  0  0  0  0  0  0  0  0
    6.7577   -5.7484    4.7142 C   0  0  0  0  0  0  0  0  0  0  0  0
    5.5382   -6.4046    6.6864 C   0  0  0  0  0  0  0  0  0  0  0  0
   10.4540   -5.8461    6.7835 C   0  0  0  0  0  0  0  0  0  0  0  0
   11.4403   -5.8064    8.9796 C   0  0  0  0  0  0  0  0  0  0  0  0
    6.0137    1.0451    5.4501 N   0  0  0  0  0  0  0  0  0  0  0  0
    6.1074   -6.7417    5.4541 C   0  0  0  0  0  0  0  0  0  0  0  0
   11.4725   -6.2375    7.6515 C   0  0  0  0  0  0  0  0  0  0  0  0
    5.9864    2.3898    4.8553 C   0  0  0  0  0  0  0  0  0  0  0  0
    6.0688   -8.1545    4.9537 C   0  0  0  0  0  0  0  0  0  0  0  0
   12.5368   -7.0329    7.3340 O   0  0  0  0  0  0  0  0  0  0  0  0
    4.6023    3.0760    4.9722 C   0  0  0  0  0  0  0  0  0  0  0  0
   13.3362   -6.6271    6.2303 C   0  0  0  0  0  0  0  0  0  0  0  0
    4.5557    3.8087    6.2139 O   0  0  0  0  0  0  0  0  0  0  0  0
    4.3618    4.0641    3.8175 C   0  0  0  0  0  0  0  0  0  0  0  0
    5.3811    5.0820    3.8426 O   0  0  0  0  0  0  0  0  0  0  0  0
    5.5411    5.7786    2.6749 C   0  0  0  0  0  0  0  0  0  0  0  0
    4.6245    6.7616    2.2597 C   0  0  0  0  0  0  0  0  0  0  0  0
    6.7366    5.5639    1.9618 C   0  0  0  0  0  0  0  0  0  0  0  0
    4.8605    7.4364    1.0527 C   0  0  0  0  0  0  0  0  0  0  0  0
    3.4109    7.1311    3.0639 C   0  0  0  0  0  0  0  0  0  0  0  0
    6.9452    6.2549    0.7613 C   0  0  0  0  0  0  0  0  0  0  0  0
    7.7878    4.5956    2.4335 C   0  0  0  0  0  0  0  0  0  0  0  0
    6.0074    7.1792    0.3051 C   0  0  0  0  0  0  0  0  0  0  0  0
  1  2  2  0
  2  3  1  0
  2  4  1  0
  3  5  1  0
  4  6  1  0
  4  7  1  6
  5  8  1  0
  6  9  1  0
  6 10  1  0
  7 11  4  0
  7 12  4  0
  8 13  4  0
  8 14  4  0
  9 15  1  0
 10 16  1  0
 11 17  4  0
 12 18  4  0
 13 19  4  0
 14 20  4  0
 15 21  1  0
 17 22  4  0
 19 23  4  0
 21 24  1  0
 22 25  1  0
 23 26  1  0
 24 27  1  0
 26 28  1  0
 27 29  1  0
 27 30  1  0
 30 31  1  0
 31 32  1  0
 32 33  4  0
 32 34  4  0
 33 35  4  0
 33 36  1  0
 34 37  4  0
 34 38  1  0
 35 39  4  0
 16 21  1  0
 18 22  4  0
 20 23  4  0
 37 39  4  0
M  END
