
     RDKit          3D

 32 36  0  0  0  0  0  0  0  0999 V2000
   10.7801    2.6149    2.7379 S   0  0  0  0  0  0  0  0  0  0  0  0
    9.7751    3.5382    3.2141 O   0  0  0  0  0  0  0  0  0  0  0  0
   10.9096    2.3086    1.3310 O   0  0  0  0  0  0  0  0  0  0  0  0
   10.6916    1.2439    3.6148 O   0  0  0  0  0  0  0  0  0  0  0  0
   12.2421    3.3287    3.1694 N   0  0  0  0  0  0  0  0  0  0  0  0
    9.5002    0.5755    3.6928 C   0  0  0  0  0  0  0  0  0  0  0  0
    8.5101    0.7600    2.7308 C   0  0  0  0  0  0  0  0  0  0  0  0
    9.2688   -0.2364    4.8007 C   0  0  0  0  0  0  0  0  0  0  0  0
    7.2898    0.0923    2.8578 C   0  0  0  0  0  0  0  0  0  0  0  0
    8.0484   -0.9030    4.9274 C   0  0  0  0  0  0  0  0  0  0  0  0
    7.0511   -0.7489    3.9542 C   0  0  0  0  0  0  0  0  0  0  0  0
    5.7593   -1.4553    4.1092 C   0  0  0  0  0  0  0  0  0  0  0  0
    4.9977   -1.4917    5.3597 C   0  0  0  0  0  0  0  0  0  0  0  0
    5.2868   -2.1246    3.0404 C   0  0  0  0  0  0  0  0  0  0  0  0
    4.9780   -0.4254    6.1774 C   0  0  0  0  0  0  0  0  0  0  0  0
    4.2463   -2.7943    5.6283 C   0  0  2  0  0  0  0  0  0  0  0  0
    4.0081   -2.9263    3.0186 C   0  0  0  0  0  0  0  0  0  0  0  0
    4.0997   -0.3857    7.3641 C   0  0  0  0  0  0  0  0  0  0  0  0
    3.2996   -3.1243    4.4168 C   0  0  0  0  0  0  0  0  0  0  0  0
    3.5301   -2.7797    7.0125 C   0  0  0  0  0  0  0  0  0  0  0  0
    5.2890   -3.9560    5.7442 C   0  0  0  0  0  0  0  0  0  0  0  0
    2.9834   -2.4016    2.0091 C   0  0  0  0  0  0  0  0  0  0  0  0
    4.2174    0.5260    8.1779 O   0  0  0  0  0  0  0  0  0  0  0  0
    3.0134   -1.4213    7.4630 C   0  0  0  0  0  0  0  0  0  0  0  0
    1.8505   -2.5525    4.4470 C   0  0  0  0  0  0  0  0  0  0  0  0
    2.3244   -1.0633    2.4134 C   0  0  2  0  0  0  0  0  0  0  0  0
    3.3407   -2.2297    0.5370 C   0  0  0  0  0  0  0  0  0  0  0  0
    1.6310   -1.1924    3.7753 C   0  0  0  0  0  0  0  0  0  0  0  0
    1.4337   -0.9267    1.1833 C   0  0  0  0  0  0  0  0  0  0  0  0
    3.1909    0.2094    2.3972 C   0  0  0  0  0  0  0  0  0  0  0  0
    2.0595   -1.5988   -0.0326 C   0  0  0  0  0  0  0  0  0  0  0  0
    0.3667   -0.3281    1.1530 O   0  0  0  0  0  0  0  0  0  0  0  0
  1  2  2  0
  1  3  2  0
  1  4  1  0
  1  5  1  0
  4  6  1  0
  6  7  4  0
  6  8  4  0
  7  9  4  0
  8 10  4  0
  9 11  4  0
 11 12  1  0
 12 13  1  0
 12 14  2  0
 13 15  2  0
 13 16  1  0
 17 14  1  0
 15 18  1  0
 16 19  1  0
 16 20  1  0
 16 21  1  1
 17 22  1  0
 18 23  2  0
 18 24  1  0
 19 25  1  0
 22 26  1  0
 22 27  1  0
 25 28  1  0
 26 29  1  0
 26 30  1  1
 27 31  1  0
 29 32  2  0
 10 11  4  0
 17 19  1  0
 20 24  1  0
 26 28  1  0
 29 31  1  0
M  END
