
     RDKit          3D

 17 19  0  0  0  0  0  0  0  0999 V2000
   11.2915    1.7988    3.3630 N   0  0  0  0  0  0  0  0  0  0  0  0
   10.5049    2.6382    3.2097 C   0  0  0  0  0  0  0  0  0  0  0  0
    9.5374    3.6785    3.0169 C   0  0  0  0  0  0  0  0  0  0  0  0
    9.8809    5.0110    3.2622 C   0  0  0  0  0  0  0  0  0  0  0  0
    8.2475    3.3666    2.5804 C   0  0  0  0  0  0  0  0  0  0  0  0
    8.9392    6.0269    3.0730 C   0  0  0  0  0  0  0  0  0  0  0  0
    7.3062    4.3819    2.3900 C   0  0  0  0  0  0  0  0  0  0  0  0
    7.6387    5.7248    2.6386 C   0  0  0  0  0  0  0  0  0  0  0  0
    6.6316    6.8457    2.4264 C   0  0  2  0  0  0  0  0  0  0  0  0
    5.2590    6.4207    2.7092 N   0  0  0  0  0  0  0  0  0  0  0  0
    6.7677    7.4439    1.0087 C   0  0  0  0  0  0  0  0  0  0  0  0
    4.1619    6.7782    1.9621 C   0  0  0  0  0  0  0  0  0  0  0  0
    4.8093    5.7407    3.8040 C   0  0  0  0  0  0  0  0  0  0  0  0
    5.5854    8.3561    0.6709 C   0  0  0  0  0  0  0  0  0  0  0  0
    3.0896    6.2365    2.6345 C   0  0  0  0  0  0  0  0  0  0  0  0
    4.2710    7.5733    0.7127 C   0  0  0  0  0  0  0  0  0  0  0  0
    3.5032    5.5963    3.7745 N   0  0  0  0  0  0  0  0  0  0  0  0
  1  2  3  0
  2  3  1  0
  3  4  4  0
  3  5  4  0
  4  6  4  0
  5  7  4  0
  6  8  4  0
  9  8  1  6
  9 10  1  0
  9 11  1  0
 10 12  4  0
 10 13  4  0
 11 14  1  0
 12 15  4  0
 12 16  1  0
 13 17  4  0
  7  8  4  0
 14 16  1  0
 15 17  4  0
M  END
