
     RDKit          3D

 23 26  0  0  0  0  0  0  0  0999 V2000
    4.8264    3.7071    5.5657 O   0  0  0  0  0  0  0  0  0  0  0  0
    5.5383    3.5844    4.5719 C   0  0  0  0  0  0  0  0  0  0  0  0
    5.6956    4.6920    3.5839 C   0  0  0  0  0  0  0  0  0  0  0  0
    6.2051    2.2724    4.2377 C   0  0  0  0  0  0  0  0  0  0  0  0
    4.6123    5.4466    3.3264 C   0  0  0  0  0  0  0  0  0  0  0  0
    7.0496    4.8770    2.9219 C   0  0  1  0  0  0  0  0  0  0  0  0
    7.6194    2.4589    3.6841 C   0  0  2  0  0  0  0  0  0  0  0  0
    4.5927    6.5851    2.3517 C   0  0  0  0  0  0  0  0  0  0  0  0
    7.6221    3.4757    2.4971 C   0  0  2  0  0  0  0  0  0  0  0  0
    6.8919    5.7752    1.6574 C   0  0  0  0  0  0  0  0  0  0  0  0
    7.9700    5.5996    3.9346 C   0  0  0  0  0  0  0  0  0  0  0  0
    8.1973    1.1304    3.1864 C   0  0  1  0  0  0  0  0  0  0  0  0
    3.9476    7.6791    3.0029 O   0  0  0  0  0  0  0  0  0  0  0  0
    5.9976    6.9923    1.8950 C   0  0  0  0  0  0  0  0  0  0  0  0
    9.0028    3.5536    1.7857 C   0  0  0  0  0  0  0  0  0  0  0  0
    9.6461    1.2847    2.6837 C   0  0  2  0  0  0  0  0  0  0  0  0
    8.2539   -0.0711    4.1244 C   0  0  0  0  0  0  0  0  0  0  0  0
    3.5500    8.7096    2.1094 C   0  0  0  0  0  0  0  0  0  0  0  0
    9.6146    2.1815    1.4510 C   0  0  0  0  0  0  0  0  0  0  0  0
    9.9542   -0.1828    2.4466 C   0  0  0  0  0  0  0  0  0  0  0  0
   10.6680    1.7877    3.7195 C   0  0  0  0  0  0  0  0  0  0  0  0
    9.1083   -1.0766    3.3378 C   0  0  0  0  0  0  0  0  0  0  0  0
   10.7918   -0.5992    1.6578 O   0  0  0  0  0  0  0  0  0  0  0  0
  1  2  2  0
  2  3  1  0
  2  4  1  0
  3  5  2  0
  3  6  1  0
  7  4  1  6
  5  8  1  0
  6  9  1  0
  6 10  1  0
  6 11  1  1
  7 12  1  0
  8 13  1  0
  8 14  1  0
  9 15  1  1
 12 16  1  0
 12 17  1  1
 13 18  1  0
 15 19  1  0
 16 20  1  0
 16 21  1  1
 17 22  1  0
 20 23  2  0
  7  9  1  0
 10 14  1  0
 16 19  1  0
 20 22  1  0
M  END
