
     RDKit          3D

 11 12  0  0  0  0  0  0  0  0999 V2000
    4.0838    7.3116    1.3118 O   0  0  0  0  0  0  0  0  0  0  0  0
    5.2973    6.6784    1.3693 C   0  0  0  0  0  0  0  0  0  0  0  0
    3.0703    6.6927    0.5305 C   0  0  0  0  0  0  0  0  0  0  0  0
    5.3799    5.6796    2.3495 C   0  0  0  0  0  0  0  0  0  0  0  0
    6.3991    6.9494    0.5575 C   0  0  0  0  0  0  0  0  0  0  0  0
    6.5743    4.9519    2.5129 C   0  0  0  0  0  0  0  0  0  0  0  0
    7.5995    6.2392    0.7001 C   0  0  0  0  0  0  0  0  0  0  0  0
    7.6560    5.2480    1.6852 C   0  0  0  0  0  0  0  0  0  0  0  0
    6.9859    3.9047    3.3827 C   0  0  0  0  0  0  0  0  0  0  0  0
    8.6841    4.4063    2.0457 N   0  0  0  0  0  0  0  0  0  0  0  0
    8.2890    3.5894    3.0720 C   0  0  0  0  0  0  0  0  0  0  0  0
  1  2  1  0
  1  3  1  0
  2  4  4  0
  2  5  4  0
  4  6  4  0
  5  7  4  0
  6  8  4  0
  6  9  4  0
  8 10  4  0
  9 11  4  0
  7  8  4  0
 10 11  4  0
M  END
