
     RDKit          3D

 22 25  0  0  0  0  0  0  0  0999 V2000
    3.5599    8.3430    1.7599 O   0  0  0  0  0  0  0  0  0  0  0  0
    4.0864    7.3922    2.3321 C   0  0  0  0  0  0  0  0  0  0  0  0
    5.5624    7.2903    2.3715 C   0  0  0  0  0  0  0  0  0  0  0  0
    3.2906    6.3580    3.0805 C   0  0  0  0  0  0  0  0  0  0  0  0
    6.1872    6.2537    2.9596 C   0  0  0  0  0  0  0  0  0  0  0  0
    3.9931    5.0091    3.0141 C   0  0  0  0  0  0  0  0  0  0  0  0
    5.4536    5.0344    3.5620 C   0  0  1  0  0  0  0  0  0  0  0  0
    7.6913    6.2779    3.0899 C   0  0  0  0  0  0  0  0  0  0  0  0
    6.1866    3.7225    3.0527 C   0  0  0  0  0  0  0  0  0  0  0  0
    5.4983    5.2063    5.1179 C   0  0  0  0  0  0  0  0  0  0  0  0
    8.3221    5.0101    2.5367 C   0  0  0  0  0  0  0  0  0  0  0  0
    7.7440    3.7646    3.2160 C   0  0  2  0  0  0  0  0  0  0  0  0
    5.5960    2.3969    3.6039 C   0  0  0  0  0  0  0  0  0  0  0  0
    4.2918    4.7383    5.9279 C   0  0  0  0  0  0  0  0  0  0  0  0
    8.3264    2.4829    2.6083 C   0  0  2  0  0  0  0  0  0  0  0  0
    6.3042    1.1339    3.0789 C   0  0  0  0  0  0  0  0  0  0  0  0
    7.8077    1.2187    3.3214 C   0  0  1  0  0  0  0  0  0  0  0  0
    9.8370    2.2827    2.5471 C   0  0  0  0  0  0  0  0  0  0  0  0
    8.6715    0.1949    2.6075 C   0  0  0  0  0  0  0  0  0  0  0  0
    8.1451    1.1064    4.8200 C   0  0  0  0  0  0  0  0  0  0  0  0
    9.9665    0.8153    2.1103 C   0  0  0  0  0  0  0  0  0  0  0  0
    8.3825   -0.9862    2.4705 O   0  0  0  0  0  0  0  0  0  0  0  0
  1  2  2  0
  2  3  1  0
  2  4  1  0
  3  5  2  0
  4  6  1  0
  5  7  1  0
  5  8  1  0
  7  9  1  0
  7 10  1  1
  8 11  1  0
  9 12  1  0
  9 13  1  0
 10 14  1  0
 12 15  1  0
 13 16  1  0
 15 17  1  0
 15 18  1  1
 17 19  1  0
 17 20  1  1
 18 21  1  0
 19 22  2  0
  6  7  1  0
 12 11  1  6
 16 17  1  0
 19 21  1  0
M  END
