
     RDKit          3D

 29 32  0  0  0  0  0  0  0  0999 V2000
    2.6811    2.6659    7.8179 O   0  0  0  0  0  0  0  0  0  0  0  0
    3.2831    2.4922    6.7660 C   0  0  0  0  0  0  0  0  0  0  0  0
    3.8135    1.3147    6.3608 O   0  0  0  0  0  0  0  0  0  0  0  0
    3.5069    3.5559    5.7482 C   0  0  0  0  0  0  0  0  0  0  0  0
    3.0895    0.1638    6.7953 C   0  0  0  0  0  0  0  0  0  0  0  0
    2.6409    4.5865    5.8196 C   0  0  0  0  0  0  0  0  0  0  0  0
    4.6449    3.5033    4.7414 C   0  0  1  0  0  0  0  0  0  0  0  0
    2.6766    5.6518    4.9579 O   0  0  0  0  0  0  0  0  0  0  0  0
    5.9300    4.2773    5.1417 C   0  0  0  0  0  0  0  0  0  0  0  0
    4.9797    2.0548    4.3330 C   0  0  0  0  0  0  0  0  0  0  0  0
    3.0597    5.2698    3.6375 C   0  0  0  0  0  0  0  0  0  0  0  0
    6.9928    4.1448    4.0296 C   0  0  0  0  0  0  0  0  0  0  0  0
    5.6891    5.7573    5.5156 C   0  0  0  0  0  0  0  0  0  0  0  0
    6.0646    2.0383    3.2483 C   0  0  1  0  0  0  0  0  0  0  0  0
    7.2774    2.7327    3.7540 N   0  0  0  0  0  0  0  0  0  0  0  0
    5.0935    6.0040    6.8950 C   0  0  0  0  0  0  0  0  0  0  0  0
    6.4331    0.6482    2.8221 C   0  0  0  0  0  0  0  0  0  0  0  0
    8.4143    2.5869    2.8132 C   0  0  0  0  0  0  0  0  0  0  0  0
    5.5730   -0.3924    2.6044 N   0  0  0  0  0  0  0  0  0  0  0  0
    7.7066    0.2102    2.5194 C   0  0  0  0  0  0  0  0  0  0  0  0
    8.8803    1.1158    2.6661 C   0  0  0  0  0  0  0  0  0  0  0  0
    6.2725   -1.5029    2.1791 C   0  0  0  0  0  0  0  0  0  0  0  0
    7.6259   -1.1523    2.1117 C   0  0  0  0  0  0  0  0  0  0  0  0
    5.8061   -2.7804    1.8522 C   0  0  0  0  0  0  0  0  0  0  0  0
    8.5719   -2.1222    1.7008 C   0  0  0  0  0  0  0  0  0  0  0  0
    6.7482   -3.7233    1.4393 C   0  0  0  0  0  0  0  0  0  0  0  0
    9.8875   -1.7378    1.6310 O   0  0  0  0  0  0  0  0  0  0  0  0
    8.1049   -3.4026    1.3600 C   0  0  0  0  0  0  0  0  0  0  0  0
   10.2460   -0.9087    0.5348 C   0  0  0  0  0  0  0  0  0  0  0  0
  1  2  2  0
  2  3  1  0
  2  4  1  0
  3  5  1  0
  4  6  2  0
  7  4  1  1
  6  8  1  0
  7  9  1  0
  7 10  1  0
  8 11  1  0
  9 12  1  0
  9 13  1  0
 14 10  1  1
 12 15  1  0
 13 16  1  0
 14 17  1  0
 15 18  1  0
 17 19  4  0
 17 20  4  0
 18 21  1  0
 19 22  4  0
 20 23  4  0
 22 24  4  0
 23 25  4  0
 24 26  4  0
 25 27  1  0
 25 28  4  0
 27 29  1  0
 14 15  1  0
 20 21  1  0
 22 23  4  0
 26 28  4  0
M  END
