
     RDKit          3D

 42 45  0  0  0  0  0  0  0  0999 V2000
    5.8272   -3.6469   -0.2296 F   0  0  0  0  0  0  0  0  0  0  0  0
    6.7090   -3.0482    0.6205 C   0  0  0  0  0  0  0  0  0  0  0  0
    7.7237   -3.9434    0.7857 F   0  0  0  0  0  0  0  0  0  0  0  0
    7.2426   -2.0011   -0.0693 F   0  0  0  0  0  0  0  0  0  0  0  0
    6.0863   -2.6212    1.9275 C   0  0  0  0  0  0  0  0  0  0  0  0
    5.3711   -1.4171    2.0075 C   0  0  0  0  0  0  0  0  0  0  0  0
    6.1778   -3.4306    3.0692 C   0  0  0  0  0  0  0  0  0  0  0  0
    4.7673   -1.0276    3.2056 C   0  0  0  0  0  0  0  0  0  0  0  0
    5.5761   -3.0384    4.2688 C   0  0  0  0  0  0  0  0  0  0  0  0
    4.8636   -1.8313    4.3526 C   0  0  0  0  0  0  0  0  0  0  0  0
    4.1910   -1.3793    5.6501 C   0  0  0  0  0  0  0  0  0  0  0  0
    5.1214   -0.6926    6.6223 N   0  0  0  0  0  0  0  0  0  0  0  0
    3.5372   -2.6235    6.3349 C   0  0  0  0  0  0  0  0  0  0  0  0
    5.8141    0.4654    6.0134 C   0  0  0  0  0  0  0  0  0  0  0  0
    4.3468   -0.1570    7.7837 C   0  0  0  0  0  0  0  0  0  0  0  0
    2.3801   -2.9760    6.1141 O   0  0  0  0  0  0  0  0  0  0  0  0
    4.3879   -3.3022    7.1904 N   0  0  0  0  0  0  0  0  0  0  0  0
    4.9021    1.6247    5.5417 C   0  0  0  0  0  0  0  0  0  0  0  0
    3.7455    1.2726    7.6368 C   0  0  0  0  0  0  0  0  0  0  0  0
    3.9447   -4.4253    7.9765 C   0  0  0  0  0  0  0  0  0  0  0  0
    3.5985    1.6942    6.2360 N   0  0  0  0  0  0  0  0  0  0  0  0
    4.3670   -5.7164    7.3232 C   0  0  0  0  0  0  0  0  0  0  0  0
    2.9959    3.0327    6.0700 C   0  0  0  0  0  0  0  0  0  0  0  0
    3.5582   -6.8559    7.4041 C   0  0  0  0  0  0  0  0  0  0  0  0
    5.5437   -5.7746    6.5644 C   0  0  0  0  0  0  0  0  0  0  0  0
    3.9980    4.1780    5.8060 C   0  0  0  0  0  0  0  0  0  0  0  0
    3.9276   -8.0290    6.7430 C   0  0  0  0  0  0  0  0  0  0  0  0
    5.9100   -6.9506    5.9016 C   0  0  0  0  0  0  0  0  0  0  0  0
    4.8501    4.3521    6.9512 O   0  0  0  0  0  0  0  0  0  0  0  0
    4.8754    3.8601    4.5874 C   0  0  0  0  0  0  0  0  0  0  0  0
    5.0985   -8.0816    5.9834 C   0  0  0  0  0  0  0  0  0  0  0  0
    6.0410    4.7093    4.6244 O   0  0  0  0  0  0  0  0  0  0  0  0
    5.3308   -9.2845    5.3754 O   0  0  0  0  0  0  0  0  0  0  0  0
    6.2849    5.3019    3.4102 C   0  0  0  0  0  0  0  0  0  0  0  0
    5.8124  -10.3358    6.2015 C   0  0  0  0  0  0  0  0  0  0  0  0
    5.4284    6.2980    2.9078 C   0  0  0  0  0  0  0  0  0  0  0  0
    7.3695    4.8305    2.6518 C   0  0  0  0  0  0  0  0  0  0  0  0
    5.7408    6.8967    1.6800 C   0  0  0  0  0  0  0  0  0  0  0  0
    4.2119    6.7604    3.6562 C   0  0  0  0  0  0  0  0  0  0  0  0
    7.6550    5.4465    1.4259 C   0  0  0  0  0  0  0  0  0  0  0  0
    8.2609    3.7234    3.1381 C   0  0  0  0  0  0  0  0  0  0  0  0
    6.8495    6.4774    0.9467 C   0  0  0  0  0  0  0  0  0  0  0  0
  1  2  1  0
  2  3  1  0
  2  4  1  0
  2  5  1  0
  5  6  4  0
  5  7  4  0
  6  8  4  0
  7  9  4  0
  8 10  4  0
 10 11  1  0
 11 12  1  0
 11 13  1  0
 12 14  1  0
 12 15  1  0
 13 16  2  0
 13 17  1  0
 14 18  1  0
 15 19  1  0
 17 20  1  0
 18 21  1  0
 20 22  1  0
 21 23  1  0
 22 24  4  0
 22 25  4  0
 23 26  1  0
 24 27  4  0
 25 28  4  0
 26 29  1  0
 26 30  1  0
 27 31  4  0
 30 32  1  0
 31 33  1  0
 32 34  1  0
 33 35  1  0
 34 36  4  0
 34 37  4  0
 36 38  4  0
 36 39  1  0
 37 40  4  0
 37 41  1  0
 38 42  4  0
  9 10  4  0
 19 21  1  0
 28 31  4  0
 40 42  4  0
M  END
