
     RDKit          3D

 23 27  0  0  0  0  0  0  0  0999 V2000
    4.3024    4.4667    6.5203 S   0  0  0  0  0  0  0  0  0  0  0  0
    5.4279    5.2362    5.4552 C   0  0  0  0  0  0  0  0  0  0  0  0
    4.3751    6.1261    6.0673 C   0  0  0  0  0  0  0  0  0  0  0  0
    5.4971    4.9019    3.9363 C   0  0  1  0  0  0  0  0  0  0  0  0
    6.1487    5.9805    3.0532 C   0  0  0  0  0  0  0  0  0  0  0  0
    6.2370    3.4766    3.8278 C   0  0  2  0  0  0  0  0  0  0  0  0
    4.0082    4.7559    3.4530 C   0  0  0  0  0  0  0  0  0  0  0  0
    5.4515    6.9181    2.3813 C   0  0  0  0  0  0  0  0  0  0  0  0
    7.6476    6.0010    2.9591 C   0  0  0  0  0  0  0  0  0  0  0  0
    7.7840    3.5408    3.5494 C   0  0  0  0  0  0  0  0  0  0  0  0
    5.5815    2.3869    2.9339 C   0  0  0  0  0  0  0  0  0  0  0  0
    3.2483    6.0745    3.3754 C   0  0  0  0  0  0  0  0  0  0  0  0
    3.9785    7.0365    2.4795 C   0  0  0  0  0  0  0  0  0  0  0  0
    8.1712    4.6424    2.5532 C   0  0  0  0  0  0  0  0  0  0  0  0
    8.3029    2.2017    2.9906 C   0  0  2  0  0  0  0  0  0  0  0  0
    6.1618    0.9671    3.1694 C   0  0  0  0  0  0  0  0  0  0  0  0
    3.4012    7.9289    1.8635 O   0  0  0  0  0  0  0  0  0  0  0  0
    7.6279    0.9728    3.6133 C   0  0  1  0  0  0  0  0  0  0  0  0
    9.7980    1.9077    3.0724 C   0  0  0  0  0  0  0  0  0  0  0  0
    8.5092   -0.1022    2.9935 C   0  0  0  0  0  0  0  0  0  0  0  0
    7.7838    0.8179    5.1363 C   0  0  0  0  0  0  0  0  0  0  0  0
    9.8798    0.4411    2.6287 C   0  0  0  0  0  0  0  0  0  0  0  0
    8.1739   -1.2682    2.8328 O   0  0  0  0  0  0  0  0  0  0  0  0
  1  2  1  0
  1  3  1  0
  4  2  1  1
  4  5  1  0
  4  6  1  0
  4  7  1  0
  5  8  2  0
  5  9  1  0
  6 10  1  0
  6 11  1  6
  7 12  1  0
  8 13  1  0
  9 14  1  0
 10 15  1  0
 11 16  1  0
 13 17  2  0
 15 18  1  0
 15 19  1  1
 18 20  1  0
 18 21  1  1
 19 22  1  0
 20 23  2  0
  2  3  1  0
 10 14  1  0
 12 13  1  0
 16 18  1  0
 20 22  1  0
M  END
