
     RDKit          3D

 37 40  0  0  0  0  0  0  0  0999 V2000
   10.3411   -1.9932    7.4749 O   0  0  0  0  0  0  0  0  0  0  0  0
    9.3688   -2.3702    6.8236 C   0  0  0  0  0  0  0  0  0  0  0  0
    9.4675   -3.1783    5.7060 N   0  0  0  0  0  0  0  0  0  0  0  0
    7.9073   -1.9712    7.1924 C   0  0  1  0  0  0  0  0  0  0  0  0
    9.9412   -4.5374    5.7854 C   0  0  0  0  0  0  0  0  0  0  0  0
    7.5438   -0.6542    6.5572 N   0  0  0  0  0  0  0  0  0  0  0  0
    6.9735   -3.1214    6.8151 C   0  0  0  0  0  0  0  0  0  0  0  0
   11.3504   -4.6350    5.2584 C   0  0  0  0  0  0  0  0  0  0  0  0
    6.0967   -0.3535    6.7035 C   0  0  0  0  0  0  0  0  0  0  0  0
    7.9161   -0.6479    5.1186 C   0  0  0  0  0  0  0  0  0  0  0  0
    6.4162   -3.9235    7.8218 C   0  0  0  0  0  0  0  0  0  0  0  0
    6.6627   -3.4167    5.4780 C   0  0  0  0  0  0  0  0  0  0  0  0
   12.3814   -3.8757    5.8288 C   0  0  0  0  0  0  0  0  0  0  0  0
   11.6592   -5.5292    4.2245 C   0  0  0  0  0  0  0  0  0  0  0  0
    5.1887   -0.7845    5.5259 C   0  0  0  0  0  0  0  0  0  0  0  0
    6.9917    0.2224    4.2419 C   0  0  0  0  0  0  0  0  0  0  0  0
    5.5603   -4.9809    7.5011 C   0  0  0  0  0  0  0  0  0  0  0  0
    5.8057   -4.4726    5.1590 C   0  0  0  0  0  0  0  0  0  0  0  0
   13.6918   -4.0007    5.3647 C   0  0  0  0  0  0  0  0  0  0  0  0
   12.9701   -5.6541    3.7632 C   0  0  0  0  0  0  0  0  0  0  0  0
    5.6272   -0.3379    4.1876 N   0  0  0  0  0  0  0  0  0  0  0  0
    5.2558   -5.2694    6.1672 C   0  0  0  0  0  0  0  0  0  0  0  0
   13.9858   -4.8897    4.3326 C   0  0  0  0  0  0  0  0  0  0  0  0
    4.6929    0.6074    3.5420 C   0  0  0  0  0  0  0  0  0  0  0  0
    4.3086   -6.3803    5.8251 C   0  0  0  0  0  0  0  0  0  0  0  0
    4.8473    2.0521    4.0757 C   0  0  1  0  0  0  0  0  0  0  0  0
    4.8231    2.0025    5.5116 O   0  0  0  0  0  0  0  0  0  0  0  0
    6.1224    2.7581    3.5918 C   0  0  0  0  0  0  0  0  0  0  0  0
    6.2271    4.1124    4.0707 O   0  0  0  0  0  0  0  0  0  0  0  0
    5.7662    5.0407    3.1717 C   0  0  0  0  0  0  0  0  0  0  0  0
    6.5794    5.5043    2.1217 C   0  0  0  0  0  0  0  0  0  0  0  0
    4.4948    5.5985    3.3960 C   0  0  0  0  0  0  0  0  0  0  0  0
    6.0482    6.4363    1.2175 C   0  0  0  0  0  0  0  0  0  0  0  0
    7.9940    5.0376    1.9275 C   0  0  0  0  0  0  0  0  0  0  0  0
    3.9913    6.5305    2.4774 C   0  0  0  0  0  0  0  0  0  0  0  0
    3.6421    5.1998    4.5690 C   0  0  0  0  0  0  0  0  0  0  0  0
    4.7590    6.9384    1.3885 C   0  0  0  0  0  0  0  0  0  0  0  0
  1  2  2  0
  2  3  1  0
  2  4  1  0
  3  5  1  0
  4  6  1  0
  4  7  1  6
  5  8  1  0
  6  9  1  0
  6 10  1  0
  7 11  4  0
  7 12  4  0
  8 13  4  0
  8 14  4  0
  9 15  1  0
 10 16  1  0
 11 17  4  0
 12 18  4  0
 13 19  4  0
 14 20  4  0
 15 21  1  0
 17 22  4  0
 19 23  4  0
 21 24  1  0
 22 25  1  0
 24 26  1  0
 26 27  1  1
 26 28  1  0
 28 29  1  0
 29 30  1  0
 30 31  4  0
 30 32  4  0
 31 33  4  0
 31 34  1  0
 32 35  4  0
 32 36  1  0
 33 37  4  0
 16 21  1  0
 18 22  4  0
 20 23  4  0
 35 37  4  0
M  END
