
     RDKit          3D

 22 25  0  0  0  0  0  0  0  0999 V2000
    8.2894   -1.2256    2.5620 O   0  0  0  0  0  0  0  0  0  0  0  0
    8.5581   -0.0377    2.6821 C   0  0  0  0  0  0  0  0  0  0  0  0
    7.6865    0.9773    3.3995 C   0  0  1  0  0  0  0  0  0  0  0  0
    9.8339    0.6003    2.1588 C   0  0  0  0  0  0  0  0  0  0  0  0
    8.1778    2.2464    2.6738 C   0  0  2  0  0  0  0  0  0  0  0  0
    6.1823    0.8659    3.1748 C   0  0  0  0  0  0  0  0  0  0  0  0
    8.0382    0.8779    4.8954 C   0  0  0  0  0  0  0  0  0  0  0  0
    9.6898    2.0672    2.5913 C   0  0  0  0  0  0  0  0  0  0  0  0
    7.5895    3.5168    3.2942 C   0  0  2  0  0  0  0  0  0  0  0  0
    5.4528    2.1190    3.6939 C   0  0  0  0  0  0  0  0  0  0  0  0
    6.0351    3.4555    3.1517 C   0  0  1  0  0  0  0  0  0  0  0  0
    8.1340    4.7812    2.6230 C   0  0  0  0  0  0  0  0  0  0  0  0
    5.3197    4.7413    3.7148 C   0  0  1  0  0  0  0  0  0  0  0  0
    7.5059    6.0470    3.2091 C   0  0  2  0  0  0  0  0  0  0  0  0
    5.9851    5.9958    3.1149 C   0  0  0  0  0  0  0  0  0  0  0  0
    3.8082    4.6727    3.3267 C   0  0  0  0  0  0  0  0  0  0  0  0
    5.4209    4.8301    5.2563 C   0  0  0  0  0  0  0  0  0  0  0  0
    8.0204    7.1770    2.4945 O   0  0  0  0  0  0  0  0  0  0  0  0
    5.2615    6.9870    2.5534 C   0  0  0  0  0  0  0  0  0  0  0  0
    3.1043    6.0223    3.4117 C   0  0  0  0  0  0  0  0  0  0  0  0
    8.0599    6.9740    1.0892 C   0  0  0  0  0  0  0  0  0  0  0  0
    3.7672    7.0305    2.4837 C   0  0  0  0  0  0  0  0  0  0  0  0
  1  2  2  0
  2  3  1  0
  2  4  1  0
  3  5  1  0
  3  6  1  0
  3  7  1  1
  4  8  1  0
  5  9  1  0
  6 10  1  0
  9 11  1  0
  9 12  1  6
 11 13  1  0
 12 14  1  0
 13 15  1  0
 13 16  1  0
 13 17  1  1
 14 18  1  6
 15 19  2  0
 16 20  1  0
 18 21  1  0
 19 22  1  0
  5  8  1  1
 11 10  1  1
 14 15  1  0
 20 22  1  0
M  END
