
     RDKit          3D

 20 23  0  0  0  0  0  0  0  0999 V2000
    9.2914    0.7646    2.6090 O   0  0  0  0  0  0  0  0  0  0  0  0
    8.6699    1.7986    2.8181 C   0  0  0  0  0  0  0  0  0  0  0  0
    9.0341    3.0637    2.1497 C   0  0  0  0  0  0  0  0  0  0  0  0
    7.5196    1.8293    3.7395 C   0  0  0  0  0  0  0  0  0  0  0  0
    8.3724    4.2105    2.3877 C   0  0  0  0  0  0  0  0  0  0  0  0
    6.8598    2.9701    3.9804 C   0  0  0  0  0  0  0  0  0  0  0  0
    7.1986    4.3265    3.3705 C   0  0  2  0  0  0  0  0  0  0  0  0
    8.7305    5.4614    1.6253 C   0  0  0  0  0  0  0  0  0  0  0  0
    5.9630    4.8952    2.5779 C   0  0  0  0  0  0  0  0  0  0  0  0
    7.6141    5.2341    4.5498 C   0  0  0  0  0  0  0  0  0  0  0  0
    7.5174    5.9886    0.8658 C   0  0  0  0  0  0  0  0  0  0  0  0
    6.3155    6.2078    1.7967 C   0  0  1  0  0  0  0  0  0  0  0  0
    4.6765    5.0738    3.4340 C   0  0  0  0  0  0  0  0  0  0  0  0
    5.0781    6.6622    1.0164 C   0  0  1  0  0  0  0  0  0  0  0  0
    3.4914    5.6673    2.6503 C   0  0  0  0  0  0  0  0  0  0  0  0
    3.8816    6.9652    1.9360 C   0  0  2  0  0  0  0  0  0  0  0  0
    5.1694    7.8993    0.1304 C   0  0  0  0  0  0  0  0  0  0  0  0
    2.8648    7.4660    0.8996 C   0  0  0  0  0  0  0  0  0  0  0  0
    4.1244    8.0864    2.9747 C   0  0  0  0  0  0  0  0  0  0  0  0
    3.7015    8.3063   -0.0832 C   0  0  0  0  0  0  0  0  0  0  0  0
  1  2  2  0
  2  3  1  0
  2  4  1  0
  3  5  2  0
  4  6  2  0
  5  7  1  0
  5  8  1  0
  7  9  1  0
  7 10  1  1
  8 11  1  0
  9 12  1  0
  9 13  1  0
 12 14  1  0
 13 15  1  0
 14 16  1  0
 14 17  1  1
 16 18  1  0
 16 19  1  1
 17 20  1  0
  6  7  1  0
 12 11  1  6
 15 16  1  0
 18 20  1  0
M  END
