
     RDKit          3D

 23 27  0  0  0  0  0  0  0  0999 V2000
   10.8978   -1.6514    5.8298 O   0  0  0  0  0  0  0  0  0  0  0  0
   10.5970   -0.7621    5.0367 C   0  0  0  0  0  0  0  0  0  0  0  0
    9.1851   -0.6207    4.6148 C   0  0  0  0  0  0  0  0  0  0  0  0
   11.6245    0.1419    4.4120 C   0  0  0  0  0  0  0  0  0  0  0  0
    8.7818    0.3501    3.7765 C   0  0  0  0  0  0  0  0  0  0  0  0
   11.0252    1.5008    4.0783 C   0  0  0  0  0  0  0  0  0  0  0  0
    9.7067    1.4559    3.2364 C   0  0  2  0  0  0  0  0  0  0  0  0
    7.3491    0.3799    3.3007 C   0  0  0  0  0  0  0  0  0  0  0  0
    8.9736    2.8500    3.4665 C   0  0  0  0  0  0  0  0  0  0  0  0
    9.9784    1.2617    1.7291 C   0  0  0  0  0  0  0  0  0  0  0  0
    6.6949    1.7301    3.5664 C   0  0  0  0  0  0  0  0  0  0  0  0
    7.5025    2.8681    2.9319 C   0  0  1  0  0  0  0  0  0  0  0  0
    9.7976    4.0783    2.9805 C   0  0  0  0  0  0  0  0  0  0  0  0
    8.8896    1.0770    0.7686 N   0  0  0  0  0  0  0  0  0  0  0  0
    9.6323    2.3259    0.7050 C   0  0  0  0  0  0  0  0  0  0  0  0
    6.8962    4.2390    3.2413 C   0  0  1  0  0  0  0  0  0  0  0  0
    9.0704    5.4249    3.1515 C   0  0  0  0  0  0  0  0  0  0  0  0
    7.6723    5.3752    2.5445 C   0  0  2  0  0  0  0  0  0  0  0  0
    5.4369    4.5191    2.8991 C   0  0  0  0  0  0  0  0  0  0  0  0
    6.7413    6.5233    2.8911 C   0  0  0  0  0  0  0  0  0  0  0  0
    7.7320    5.3065    1.0075 C   0  0  0  0  0  0  0  0  0  0  0  0
    5.3212    6.0345    3.1208 C   0  0  0  0  0  0  0  0  0  0  0  0
    7.0773    7.6983    2.9519 O   0  0  0  0  0  0  0  0  0  0  0  0
  1  2  2  0
  2  3  1  0
  2  4  1  0
  3  5  2  0
  4  6  1  0
  5  7  1  0
  5  8  1  0
  7  9  1  0
  7 10  1  6
  8 11  1  0
  9 12  1  0
  9 13  1  0
 10 14  1  0
 10 15  1  0
 12 16  1  0
 13 17  1  0
 16 18  1  0
 16 19  1  6
 18 20  1  0
 18 21  1  6
 19 22  1  0
 20 23  2  0
  7  6  1  0
 12 11  1  1
 14 15  1  0
 17 18  1  0
 20 22  1  0
M  END
