
     RDKit          3D

 20 22  0  0  0  0  0  0  0  0999 V2000
    9.2971    0.7862    3.1803 O   0  0  0  0  0  0  0  0  0  0  0  0
    8.6423    1.8141    3.2971 C   0  0  0  0  0  0  0  0  0  0  0  0
    9.1210    3.0987    2.7489 C   0  0  0  0  0  0  0  0  0  0  0  0
    7.3365    1.8179    3.9814 C   0  0  0  0  0  0  0  0  0  0  0  0
    8.4209    4.2381    2.8930 C   0  0  0  0  0  0  0  0  0  0  0  0
    6.6380    2.9517    4.1284 C   0  0  0  0  0  0  0  0  0  0  0  0
    7.0834    4.3265    3.6394 C   0  0  2  0  0  0  0  0  0  0  0  0
    8.9090    5.5122    2.2514 C   0  0  0  0  0  0  0  0  0  0  0  0
    6.0137    4.9240    2.6502 C   0  0  2  0  0  0  0  0  0  0  0  0
    7.2683    5.1925    4.9057 C   0  0  0  0  0  0  0  0  0  0  0  0
    7.8564    6.0520    1.2904 C   0  0  0  0  0  0  0  0  0  0  0  0
    6.4940    6.2384    1.9774 C   0  0  1  0  0  0  0  0  0  0  0  0
    4.6261    5.1594    3.2817 C   0  0  0  0  0  0  0  0  0  0  0  0
    5.4650    6.7496    0.9534 C   0  0  0  0  0  0  0  0  0  0  0  0
    3.6065    5.6694    2.2607 C   0  0  0  0  0  0  0  0  0  0  0  0
    4.0425    6.9527    1.5283 C   0  0  2  0  0  0  0  0  0  0  0  0
    3.0790    7.2593    0.3580 C   0  0  0  0  0  0  0  0  0  0  0  0
    4.0098    8.1700    2.4685 C   0  0  0  0  0  0  0  0  0  0  0  0
    2.1969    6.4665    0.0189 O   0  0  0  0  0  0  0  0  0  0  0  0
    3.2593    8.5480   -0.4097 C   0  0  0  0  0  0  0  0  0  0  0  0
  1  2  2  0
  2  3  1  0
  2  4  1  0
  3  5  2  0
  4  6  2  0
  5  7  1  0
  5  8  1  0
  7  9  1  0
  7 10  1  1
  8 11  1  0
  9 12  1  0
  9 13  1  1
 12 14  1  6
 13 15  1  0
 14 16  1  0
 16 17  1  0
 16 18  1  1
 17 19  2  0
 17 20  1  0
  6  7  1  0
 11 12  1  0
 15 16  1  0
M  END
