
     RDKit          3D

 23 27  0  0  0  0  0  0  0  0999 V2000
    3.5498    8.2458    1.6895 O   0  0  0  0  0  0  0  0  0  0  0  0
    4.0722    7.3105    2.2906 C   0  0  0  0  0  0  0  0  0  0  0  0
    5.5471    7.2103    2.3347 C   0  0  0  0  0  0  0  0  0  0  0  0
    3.2648    6.3023    3.0618 C   0  0  0  0  0  0  0  0  0  0  0  0
    6.1777    6.1972    2.9543 C   0  0  0  0  0  0  0  0  0  0  0  0
    3.9739    4.9563    3.1182 C   0  0  0  0  0  0  0  0  0  0  0  0
    5.4582    5.0026    3.6086 C   0  0  1  0  0  0  0  0  0  0  0  0
    7.6859    6.2027    3.0447 C   0  0  0  0  0  0  0  0  0  0  0  0
    6.1506    3.6712    3.0710 C   0  0  0  0  0  0  0  0  0  0  0  0
    5.5933    5.0603    5.1436 C   0  0  0  0  0  0  0  0  0  0  0  0
    8.2856    4.9189    2.4854 C   0  0  0  0  0  0  0  0  0  0  0  0
    7.7094    3.6879    3.1947 C   0  0  2  0  0  0  0  0  0  0  0  0
    5.5302    2.3690    3.6524 C   0  0  0  0  0  0  0  0  0  0  0  0
    4.6800    4.4144    6.0843 N   0  0  0  0  0  0  0  0  0  0  0  0
    4.6525    5.8688    6.0143 C   0  0  0  0  0  0  0  0  0  0  0  0
    8.2618    2.3861    2.6068 C   0  0  2  0  0  0  0  0  0  0  0  0
    6.2107    1.0839    3.1467 C   0  0  0  0  0  0  0  0  0  0  0  0
    7.7320    1.1356    3.3358 C   0  0  1  0  0  0  0  0  0  0  0  0
    9.7722    2.1682    2.5765 C   0  0  0  0  0  0  0  0  0  0  0  0
    8.5141    0.0495    2.5708 C   0  0  1  0  0  0  0  0  0  0  0  0
    8.0672    1.0770    4.8477 C   0  0  0  0  0  0  0  0  0  0  0  0
    9.9262    0.6453    2.4143 C   0  0  0  0  0  0  0  0  0  0  0  0
    8.5644   -1.1955    3.2397 O   0  0  0  0  0  0  0  0  0  0  0  0
  1  2  2  0
  2  3  1  0
  2  4  1  0
  3  5  2  0
  4  6  1  0
  5  7  1  0
  5  8  1  0
  7  9  1  0
  7 10  1  1
  8 11  1  0
  9 12  1  0
  9 13  1  0
 10 14  1  0
 10 15  1  0
 12 16  1  0
 13 17  1  0
 16 18  1  0
 16 19  1  1
 18 20  1  0
 18 21  1  1
 19 22  1  0
 20 23  1  1
  7  6  1  0
 12 11  1  6
 14 15  1  0
 17 18  1  0
 20 22  1  0
M  END
