
     RDKit          3D

 22 25  0  0  0  0  0  0  0  0999 V2000
    3.4322    8.1621    1.8624 O   0  0  0  0  0  0  0  0  0  0  0  0
    3.9994    7.2305    2.4275 C   0  0  0  0  0  0  0  0  0  0  0  0
    5.4773    7.1350    2.3721 C   0  0  0  0  0  0  0  0  0  0  0  0
    3.2584    6.2219    3.2584 C   0  0  0  0  0  0  0  0  0  0  0  0
    6.1624    6.1170    2.9298 C   0  0  0  0  0  0  0  0  0  0  0  0
    3.9493    4.8718    3.1702 C   0  0  0  0  0  0  0  0  0  0  0  0
    5.4543    4.9054    3.5766 C   0  0  1  0  0  0  0  0  0  0  0  0
    7.6921    6.1070    2.9974 C   0  0  1  0  0  0  0  0  0  0  0  0
    6.1198    3.5682    3.0698 C   0  0  1  0  0  0  0  0  0  0  0  0
    5.5471    5.0528    5.1128 C   0  0  0  0  0  0  0  0  0  0  0  0
    8.2536    4.7876    2.4508 C   0  0  0  0  0  0  0  0  0  0  0  0
    8.4085    7.2758    2.3047 C   0  0  0  0  0  0  0  0  0  0  0  0
    7.6743    3.5801    3.1958 C   0  0  2  0  0  0  0  0  0  0  0  0
    5.4958    2.2795    3.6795 C   0  0  0  0  0  0  0  0  0  0  0  0
    8.2141    2.2595    2.6383 C   0  0  2  0  0  0  0  0  0  0  0  0
    6.1776    0.9771    3.2209 C   0  0  0  0  0  0  0  0  0  0  0  0
    7.6859    1.0474    3.4316 C   0  0  1  0  0  0  0  0  0  0  0  0
    9.7186    2.0239    2.5566 C   0  0  0  0  0  0  0  0  0  0  0  0
    8.5162   -0.0328    2.7624 C   0  0  0  0  0  0  0  0  0  0  0  0
    8.0452    1.0132    4.9286 C   0  0  0  0  0  0  0  0  0  0  0  0
    9.8100    0.5323    2.2012 C   0  0  0  0  0  0  0  0  0  0  0  0
    8.2039   -1.2144    2.7024 O   0  0  0  0  0  0  0  0  0  0  0  0
  1  2  2  0
  2  3  1  0
  2  4  1  0
  3  5  2  0
  4  6  1  0
  5  7  1  0
  5  8  1  0
  7  9  1  0
  7 10  1  1
  8 11  1  0
  8 12  1  6
  9 13  1  0
  9 14  1  1
 13 15  1  0
 14 16  1  0
 15 17  1  0
 15 18  1  1
 17 19  1  0
 17 20  1  1
 18 21  1  0
 19 22  2  0
  6  7  1  0
 13 11  1  6
 16 17  1  0
 19 21  1  0
M  END
