
     RDKit          3D

 39 42  0  0  0  0  0  0  0  0999 V2000
   -0.2661   -2.0125    4.9018 F   0  0  0  0  0  0  0  0  0  0  0  0
    0.9148   -1.9972    5.5298 C   0  0  0  0  0  0  0  0  0  0  0  0
    1.9797   -1.3092    4.9615 C   0  0  0  0  0  0  0  0  0  0  0  0
    1.0607   -2.6701    6.7357 C   0  0  0  0  0  0  0  0  0  0  0  0
    3.2133   -1.2926    5.6111 C   0  0  0  0  0  0  0  0  0  0  0  0
    2.2970   -2.6547    7.3874 C   0  0  0  0  0  0  0  0  0  0  0  0
    3.3936   -1.9658    6.8358 C   0  0  0  0  0  0  0  0  0  0  0  0
    4.7559   -1.9127    7.5260 C   0  0  0  0  0  0  0  0  0  0  0  0
    5.9119   -1.5693    6.6418 N   0  0  0  0  0  0  0  0  0  0  0  0
    4.8096   -1.0107    8.7993 C   0  0  0  0  0  0  0  0  0  0  0  0
    6.0973   -2.5001    5.5202 C   0  0  0  0  0  0  0  0  0  0  0  0
    5.9637   -0.1739    6.1743 C   0  0  0  0  0  0  0  0  0  0  0  0
    5.3031   -1.3425    9.8736 O   0  0  0  0  0  0  0  0  0  0  0  0
    4.2801    0.2518    8.5751 N   0  0  0  0  0  0  0  0  0  0  0  0
    7.1335   -2.0100    4.4713 C   0  0  0  0  0  0  0  0  0  0  0  0
    7.3119    0.1678    5.4746 C   0  0  0  0  0  0  0  0  0  0  0  0
    2.8876    0.4487    8.2641 C   0  0  0  0  0  0  0  0  0  0  0  0
    8.0892   -0.9784    4.9317 N   0  0  0  0  0  0  0  0  0  0  0  0
    2.0465    0.2919    9.5051 C   0  0  0  0  0  0  0  0  0  0  0  0
    9.0401   -1.4781    5.9552 C   0  0  0  0  0  0  0  0  0  0  0  0
    1.9861   -0.9342   10.1825 C   0  0  0  0  0  0  0  0  0  0  0  0
    1.3570    1.3922   10.0312 C   0  0  0  0  0  0  0  0  0  0  0  0
   10.3327   -2.0635    5.3438 C   0  0  0  0  0  0  0  0  0  0  0  0
    1.2345   -1.0599   11.3587 C   0  0  0  0  0  0  0  0  0  0  0  0
    0.6049    1.2611   11.2008 C   0  0  0  0  0  0  0  0  0  0  0  0
   10.9573   -2.9482    6.2838 O   0  0  0  0  0  0  0  0  0  0  0  0
   10.0516   -2.8273    4.0431 C   0  0  0  0  0  0  0  0  0  0  0  0
    0.5386    0.0377   11.8710 C   0  0  0  0  0  0  0  0  0  0  0  0
   10.6199   -2.1938    2.9006 O   0  0  0  0  0  0  0  0  0  0  0  0
   -0.2322    0.0482   13.0015 O   0  0  0  0  0  0  0  0  0  0  0  0
   10.3067   -0.8911    2.6347 C   0  0  0  0  0  0  0  0  0  0  0  0
   -1.3454   -0.8334   13.0293 C   0  0  0  0  0  0  0  0  0  0  0  0
   10.8996    0.2363    3.1960 C   0  0  0  0  0  0  0  0  0  0  0  0
    9.2833   -0.7235    1.6972 C   0  0  0  0  0  0  0  0  0  0  0  0
   10.4659    1.5145    2.8222 C   0  0  0  0  0  0  0  0  0  0  0  0
    8.8471    0.5532    1.3269 C   0  0  0  0  0  0  0  0  0  0  0  0
    9.4402    1.6814    1.8896 C   0  0  0  0  0  0  0  0  0  0  0  0
    9.1218    2.9821    1.6133 O   0  0  0  0  0  0  0  0  0  0  0  0
    8.3183    3.6632    2.5713 C   0  0  0  0  0  0  0  0  0  0  0  0
  1  2  1  0
  2  3  4  0
  2  4  4  0
  3  5  4  0
  4  6  4  0
  5  7  4  0
  7  8  1  0
  8  9  1  0
  8 10  1  0
  9 11  1  0
  9 12  1  0
 10 13  2  0
 10 14  1  0
 11 15  1  0
 12 16  1  0
 14 17  1  0
 15 18  1  0
 17 19  1  0
 18 20  1  0
 19 21  4  0
 19 22  4  0
 20 23  1  0
 21 24  4  0
 22 25  4  0
 23 26  1  0
 23 27  1  0
 24 28  4  0
 27 29  1  0
 28 30  1  0
 29 31  1  0
 30 32  1  0
 31 33  4  0
 31 34  4  0
 33 35  4  0
 34 36  4  0
 35 37  4  0
 37 38  1  0
 38 39  1  0
  6  7  4  0
 16 18  1  0
 25 28  4  0
 36 37  4  0
M  END
