
     RDKit          3D

 21 24  0  0  0  0  0  0  0  0999 V2000
    8.1361   -1.0542    2.6540 O   0  0  0  0  0  0  0  0  0  0  0  0
    8.4372    0.1310    2.7042 C   0  0  0  0  0  0  0  0  0  0  0  0
    7.6062    1.2065    3.3801 C   0  0  1  0  0  0  0  0  0  0  0  0
    9.7179    0.7054    2.1226 C   0  0  0  0  0  0  0  0  0  0  0  0
    8.1129    2.4196    2.5738 C   0  0  2  0  0  0  0  0  0  0  0  0
    6.0955    1.1212    3.1917 C   0  0  0  0  0  0  0  0  0  0  0  0
    7.9869    1.1822    4.8720 C   0  0  0  0  0  0  0  0  0  0  0  0
    9.6182    2.1976    2.4728 C   0  0  0  0  0  0  0  0  0  0  0  0
    7.5685    3.7377    3.1322 C   0  0  2  0  0  0  0  0  0  0  0  0
    5.4084    2.4200    3.6527 C   0  0  0  0  0  0  0  0  0  0  0  0
    6.0118    3.7087    3.0242 C   0  0  1  0  0  0  0  0  0  0  0  0
    8.1325    4.9491    2.3800 C   0  0  0  0  0  0  0  0  0  0  0  0
    5.3415    5.0418    3.5280 C   0  0  1  0  0  0  0  0  0  0  0  0
    7.5539    6.2676    2.9141 C   0  0  2  0  0  0  0  0  0  0  0  0
    6.0255    6.2469    2.8417 C   0  0  0  0  0  0  0  0  0  0  0  0
    3.8201    4.9841    3.1779 C   0  0  0  0  0  0  0  0  0  0  0  0
    5.4766    5.2141    5.0602 C   0  0  0  0  0  0  0  0  0  0  0  0
    8.2511    7.4392    2.2077 C   0  0  0  0  0  0  0  0  0  0  0  0
    5.3065    7.2133    2.2336 C   0  0  0  0  0  0  0  0  0  0  0  0
    3.1484    6.3509    3.1988 C   0  0  0  0  0  0  0  0  0  0  0  0
    3.8101    7.2808    2.1933 C   0  0  0  0  0  0  0  0  0  0  0  0
  1  2  2  0
  2  3  1  0
  2  4  1  0
  3  5  1  0
  3  6  1  0
  3  7  1  1
  4  8  1  0
  5  9  1  0
  6 10  1  0
  9 11  1  0
  9 12  1  6
 11 13  1  0
 12 14  1  0
 13 15  1  0
 13 16  1  0
 13 17  1  1
 14 18  1  6
 15 19  2  0
 16 20  1  0
 19 21  1  0
  5  8  1  1
 11 10  1  1
 14 15  1  0
 20 21  1  0
M  END
