
     RDKit          3D

 21 24  0  0  0  0  0  0  0  0999 V2000
    2.7381    7.8907    3.4809 O   0  0  0  0  0  0  0  0  0  0  0  0
    3.6003    6.8390    3.5913 C   0  0  0  0  0  0  0  0  0  0  0  0
    4.7246    6.7340    2.7743 C   0  0  0  0  0  0  0  0  0  0  0  0
    3.3196    5.8746    4.5459 C   0  0  0  0  0  0  0  0  0  0  0  0
    5.6021    5.6457    2.9119 C   0  0  0  0  0  0  0  0  0  0  0  0
    4.1696    4.7806    4.6831 C   0  0  0  0  0  0  0  0  0  0  0  0
    5.3101    4.6527    3.8708 C   0  0  0  0  0  0  0  0  0  0  0  0
    6.8530    5.4782    2.0671 C   0  0  2  0  0  0  0  0  0  0  0  0
    6.1780    3.4102    4.0025 C   0  0  2  0  0  0  0  0  0  0  0  0
    7.9808    4.9990    2.9923 C   0  0  0  0  0  0  0  0  0  0  0  0
    7.3164    6.7327    1.3185 C   0  0  0  0  0  0  0  0  0  0  0  0
    7.6835    3.6322    3.6370 C   0  0  2  0  0  0  0  0  0  0  0  0
    5.5192    2.2575    3.2029 C   0  0  0  0  0  0  0  0  0  0  0  0
    8.2015    2.4698    2.7736 C   0  0  2  0  0  0  0  0  0  0  0  0
    6.2749    0.9197    3.2567 C   0  0  0  0  0  0  0  0  0  0  0  0
    7.8015    1.0916    3.3380 C   0  0  1  0  0  0  0  0  0  0  0  0
    9.7151    2.3562    2.5690 C   0  0  0  0  0  0  0  0  0  0  0  0
    8.5903    0.1818    2.3744 C   0  0  1  0  0  0  0  0  0  0  0  0
    8.2523    0.8558    4.8021 C   0  0  0  0  0  0  0  0  0  0  0  0
    9.9532    0.8764    2.2302 C   0  0  0  0  0  0  0  0  0  0  0  0
    8.7231   -1.1434    2.8495 O   0  0  0  0  0  0  0  0  0  0  0  0
  1  2  1  0
  2  3  4  0
  2  4  4  0
  3  5  4  0
  4  6  4  0
  5  7  4  0
  5  8  1  0
  7  9  1  0
  8 10  1  0
  8 11  1  1
  9 12  1  0
  9 13  1  6
 12 14  1  0
 13 15  1  0
 14 16  1  0
 14 17  1  1
 16 18  1  0
 16 19  1  1
 17 20  1  0
 18 21  1  1
  6  7  4  0
 12 10  1  6
 15 16  1  0
 18 20  1  0
M  END
