
     RDKit          3D

 22 24  0  0  0  0  0  0  0  0999 V2000
    8.3953    7.1090    1.0815 Cl  0  0  0  0  0  0  0  0  0  0  0  0
    7.6901    5.9426    2.1311 C   0  0  0  0  0  0  0  0  0  0  0  0
    6.8353    6.3575    3.1508 C   0  0  0  0  0  0  0  0  0  0  0  0
    7.9766    4.5908    1.9568 C   0  0  0  0  0  0  0  0  0  0  0  0
    6.2607    5.4120    4.0044 C   0  0  0  0  0  0  0  0  0  0  0  0
    7.4027    3.6454    2.8098 C   0  0  0  0  0  0  0  0  0  0  0  0
    6.5418    4.0492    3.8400 C   0  0  0  0  0  0  0  0  0  0  0  0
    5.9321    3.0451    4.7335 C   0  0  0  0  0  0  0  0  0  0  0  0
    6.2437    1.7332    4.6777 C   0  0  0  0  0  0  0  0  0  0  0  0
    4.9291    3.5761    5.7347 C   0  0  0  0  0  0  0  0  0  0  0  0
    7.1975    1.1033    3.7574 C   0  0  0  0  0  0  0  0  0  0  0  0
    4.1080    4.6402    5.1809 N   0  0  0  0  0  0  0  0  0  0  0  0
    8.5698    1.2929    3.9615 C   0  0  0  0  0  0  0  0  0  0  0  0
    6.7625    0.3355    2.6705 C   0  0  0  0  0  0  0  0  0  0  0  0
    3.6965    4.5895    3.9001 N   0  0  0  0  0  0  0  0  0  0  0  0
    3.6245    5.7481    5.8126 C   0  0  0  0  0  0  0  0  0  0  0  0
    9.4982    0.7067    3.0974 C   0  0  0  0  0  0  0  0  0  0  0  0
    7.6906   -0.2507    1.8060 C   0  0  0  0  0  0  0  0  0  0  0  0
    2.9587    5.6695    3.6774 N   0  0  0  0  0  0  0  0  0  0  0  0
    2.9043    6.3913    4.8358 C   0  0  0  0  0  0  0  0  0  0  0  0
    9.0542   -0.0637    2.0244 C   0  0  0  0  0  0  0  0  0  0  0  0
   10.1968   -0.7869    0.9609 Cl  0  0  0  0  0  0  0  0  0  0  0  0
  1  2  1  0
  2  3  4  0
  2  4  4  0
  3  5  4  0
  4  6  4  0
  5  7  4  0
  7  8  1  0
  8  9  2  0
  8 10  1  0
  9 11  1  0
 10 12  1  0
 11 13  4  0
 11 14  4  0
 12 15  4  0
 12 16  4  0
 13 17  4  0
 14 18  4  0
 15 19  4  0
 16 20  4  0
 17 21  4  0
 21 22  1  0
  6  7  4  0
 18 21  4  0
 19 20  4  0
M  END
