
     RDKit          3D

 25 28  0  0  0  0  0  0  0  0999 V2000
    1.7401   -1.9415    4.7421 O   0  0  0  0  0  0  0  0  0  0  0  0
    2.7281   -1.2263    4.5984 C   0  0  0  0  0  0  0  0  0  0  0  0
    3.0529   -0.6891    3.2545 C   0  0  0  0  0  0  0  0  0  0  0  0
    3.6963   -0.9514    5.7163 C   0  0  0  0  0  0  0  0  0  0  0  0
    4.0808    0.1575    3.0471 C   0  0  0  0  0  0  0  0  0  0  0  0
    4.2392    0.4571    5.5705 C   0  0  0  0  0  0  0  0  0  0  0  0
    4.9330    0.7252    4.2028 C   0  0  1  0  0  0  0  0  0  0  0  0
    4.6058    0.4924    1.6494 C   0  0  0  0  0  0  0  0  0  0  0  0
    6.3328    0.0264    4.0713 C   0  0  1  0  0  0  0  0  0  0  0  0
    5.0469    2.2690    4.1116 C   0  0  0  0  0  0  0  0  0  0  0  0
    5.9924   -0.1771    1.5246 C   0  0  0  0  0  0  0  0  0  0  0  0
    3.7341    0.0949    0.4336 C   0  0  0  0  0  0  0  0  0  0  0  0
    6.9581    0.2491    2.6472 C   0  0  2  0  0  0  0  0  0  0  0  0
    7.3386    0.3729    5.2018 C   0  0  0  0  0  0  0  0  0  0  0  0
    2.3819    0.8206    0.4087 C   0  0  0  0  0  0  0  0  0  0  0  0
    8.2825   -0.5165    2.5884 C   0  0  2  0  0  0  0  0  0  0  0  0
    8.7240   -0.2769    5.0180 C   0  0  0  0  0  0  0  0  0  0  0  0
    2.0215    1.3771   -0.9712 C   0  0  0  0  0  0  0  0  0  0  0  0
    9.2893    0.0124    3.6313 C   0  0  1  0  0  0  0  0  0  0  0  0
    9.0807   -0.5647    1.2903 C   0  0  0  0  0  0  0  0  0  0  0  0
    3.1447    1.2573   -1.9894 C   0  0  0  0  0  0  0  0  0  0  0  0
   10.4952   -0.8049    3.2040 C   0  0  0  0  0  0  0  0  0  0  0  0
    9.6920    1.4923    3.4920 C   0  0  0  0  0  0  0  0  0  0  0  0
   10.4133   -1.1859    1.7353 C   0  0  0  0  0  0  0  0  0  0  0  0
   11.4309   -1.1001    3.9354 O   0  0  0  0  0  0  0  0  0  0  0  0
  1  2  2  0
  2  3  1  0
  2  4  1  0
  3  5  2  0
  4  6  1  0
  5  7  1  0
  5  8  1  0
  7  9  1  0
  7 10  1  6
  8 11  1  0
  8 12  1  0
  9 13  1  0
  9 14  1  1
 12 15  1  0
 13 16  1  0
 14 17  1  0
 15 18  1  0
 16 19  1  0
 16 20  1  6
 18 21  1  0
 19 22  1  0
 19 23  1  6
 20 24  1  0
 22 25  2  0
  6  7  1  0
 13 11  1  6
 17 19  1  0
 22 24  1  0
M  END
