
     RDKit          3D

 22 25  0  0  0  0  0  0  0  0999 V2000
    4.6677    8.1960    1.0204 O   0  0  0  0  0  0  0  0  0  0  0  0
    5.0179    7.2523    1.7196 C   0  0  0  0  0  0  0  0  0  0  0  0
    4.0778    6.1771    2.1292 C   0  0  0  0  0  0  0  0  0  0  0  0
    6.4179    7.1435    2.1784 C   0  0  0  0  0  0  0  0  0  0  0  0
    4.5097    5.1766    2.9156 C   0  0  0  0  0  0  0  0  0  0  0  0
    2.6719    6.2966    1.6312 C   0  0  0  0  0  0  0  0  0  0  0  0
    6.8395    6.1371    2.9631 C   0  0  0  0  0  0  0  0  0  0  0  0
    5.9222    5.0187    3.4672 C   0  0  2  0  0  0  0  0  0  0  0  0
    8.2956    6.0327    3.3410 C   0  0  0  0  0  0  0  0  0  0  0  0
    6.5417    3.6472    3.0034 C   0  0  1  0  0  0  0  0  0  0  0  0
    5.7957    5.1210    5.0037 C   0  0  0  0  0  0  0  0  0  0  0  0
    8.8717    4.6973    2.8803 C   0  0  0  0  0  0  0  0  0  0  0  0
    8.0514    3.5127    3.4110 C   0  0  2  0  0  0  0  0  0  0  0  0
    5.7225    2.3923    3.4254 C   0  0  0  0  0  0  0  0  0  0  0  0
    8.5756    2.1768    2.8775 C   0  0  2  0  0  0  0  0  0  0  0  0
    6.3711    1.0561    3.0171 C   0  0  0  0  0  0  0  0  0  0  0  0
    7.8183    0.9818    3.4908 C   0  0  1  0  0  0  0  0  0  0  0  0
   10.0466    1.8119    3.0460 C   0  0  0  0  0  0  0  0  0  0  0  0
    8.6663   -0.1363    2.9118 C   0  0  0  0  0  0  0  0  0  0  0  0
    7.8995    0.8455    5.0224 C   0  0  0  0  0  0  0  0  0  0  0  0
   10.0807    0.3362    2.6206 C   0  0  0  0  0  0  0  0  0  0  0  0
    8.2765   -1.2813    2.7266 O   0  0  0  0  0  0  0  0  0  0  0  0
  1  2  2  0
  2  3  1  0
  2  4  1  0
  3  5  2  0
  3  6  1  0
  4  7  2  0
  5  8  1  0
  7  9  1  0
  8 10  1  0
  8 11  1  1
  9 12  1  0
 10 13  1  0
 10 14  1  1
 13 15  1  0
 14 16  1  0
 15 17  1  0
 15 18  1  1
 17 19  1  0
 17 20  1  1
 18 21  1  0
 19 22  2  0
  7  8  1  0
 13 12  1  6
 16 17  1  0
 19 21  1  0
M  END
