
     RDKit          3D

 22 24  0  0  0  0  0  0  0  0999 V2000
    2.5496   -1.9888    3.3737 Br  0  0  0  0  0  0  0  0  0  0  0  0
    3.6051   -0.4771    3.7870 C   0  0  0  0  0  0  0  0  0  0  0  0
    4.0190    0.3776    2.7726 C   0  0  0  0  0  0  0  0  0  0  0  0
    3.9710   -0.2271    5.1059 C   0  0  0  0  0  0  0  0  0  0  0  0
    4.8004    1.4924    3.0872 C   0  0  0  0  0  0  0  0  0  0  0  0
    4.7538    0.8915    5.4161 C   0  0  0  0  0  0  0  0  0  0  0  0
    5.1778    1.7776    4.4154 C   0  0  0  0  0  0  0  0  0  0  0  0
    6.0186    3.0237    4.6570 C   0  0  0  0  0  0  0  0  0  0  0  0
    5.1556    4.0256    5.2074 O   0  0  0  0  0  0  0  0  0  0  0  0
    6.9398    3.6175    3.5417 C   0  0  0  0  0  0  0  0  0  0  0  0
    8.1592    2.8048    3.0909 C   0  0  0  0  0  0  0  0  0  0  0  0
    7.2906    5.0887    3.8789 C   0  0  0  0  0  0  0  0  0  0  0  0
    8.1181    1.4301    2.8161 C   0  0  0  0  0  0  0  0  0  0  0  0
    9.3847    3.4689    2.8897 C   0  0  0  0  0  0  0  0  0  0  0  0
    7.7489    5.8656    2.7448 N   0  0  0  0  0  0  0  0  0  0  0  0
    9.2627    0.7381    2.4075 C   0  0  0  0  0  0  0  0  0  0  0  0
   10.5288    2.7787    2.4813 C   0  0  0  0  0  0  0  0  0  0  0  0
    7.3197    5.5734    1.5053 N   0  0  0  0  0  0  0  0  0  0  0  0
    8.5627    6.9581    2.7438 C   0  0  0  0  0  0  0  0  0  0  0  0
   10.4696    1.4100    2.2477 C   0  0  0  0  0  0  0  0  0  0  0  0
    7.8716    6.4504    0.6774 N   0  0  0  0  0  0  0  0  0  0  0  0
    8.6322    7.3102    1.4178 C   0  0  0  0  0  0  0  0  0  0  0  0
  1  2  1  0
  2  3  4  0
  2  4  4  0
  3  5  4  0
  4  6  4  0
  5  7  4  0
  7  8  1  0
  8  9  1  0
  8 10  1  0
 10 11  1  0
 10 12  1  0
 11 13  4  0
 11 14  4  0
 12 15  1  0
 13 16  4  0
 14 17  4  0
 15 18  4  0
 15 19  4  0
 16 20  4  0
 18 21  4  0
 19 22  4  0
  6  7  4  0
 17 20  4  0
 21 22  4  0
M  END
