
     RDKit          3D

 23 27  0  0  0  0  0  0  0  0999 V2000
    4.7709    1.5662    2.9134 F   0  0  0  0  0  0  0  0  0  0  0  0
    4.7720    1.7951    4.2691 C   0  0  0  0  0  0  0  0  0  0  0  0
    4.1035    0.7438    4.8560 F   0  0  0  0  0  0  0  0  0  0  0  0
    4.5975    3.1736    4.8084 C   0  0  1  0  0  0  0  0  0  0  0  0
    5.9100    2.4356    4.9794 C   0  0  2  0  0  0  0  0  0  0  0  0
    4.5358    4.2821    3.8450 C   0  0  0  0  0  0  0  0  0  0  0  0
    7.1440    3.0240    4.3555 C   0  0  2  0  0  0  0  0  0  0  0  0
    3.5039    4.3994    2.9830 C   0  0  0  0  0  0  0  0  0  0  0  0
    5.7350    5.2396    3.8015 C   0  0  1  0  0  0  0  0  0  0  0  0
    7.0842    4.5845    4.3508 C   0  0  2  0  0  0  0  0  0  0  0  0
    7.5704    2.4934    2.9918 C   0  0  1  0  0  0  0  0  0  0  0  0
    3.4026    5.3976    1.8724 C   0  0  0  0  0  0  0  0  0  0  0  0
    5.8569    5.7954    2.3521 C   0  0  0  0  0  0  0  0  0  0  0  0
    5.4028    6.4213    4.7580 C   0  0  0  0  0  0  0  0  0  0  0  0
    8.3914    5.2014    3.7779 C   0  0  0  0  0  0  0  0  0  0  0  0
    8.9675    3.0288    2.5809 C   0  0  2  0  0  0  0  0  0  0  0  0
    7.7281    0.9853    2.7879 C   0  0  0  0  0  0  0  0  0  0  0  0
    4.5533    6.3938    1.8176 C   0  0  0  0  0  0  0  0  0  0  0  0
    8.9149    4.5589    2.4788 C   0  0  0  0  0  0  0  0  0  0  0  0
    9.1272    2.2913    1.2370 C   0  0  2  0  0  0  0  0  0  0  0  0
   10.1303    2.6380    3.5360 C   0  0  0  0  0  0  0  0  0  0  0  0
    8.6164    0.8691    1.5345 C   0  0  0  0  0  0  0  0  0  0  0  0
   10.4572    2.2615    0.7567 O   0  0  0  0  0  0  0  0  0  0  0  0
  1  2  1  0
  2  3  1  0
  4  2  1  6
  5  2  1  6
  4  6  1  0
  7  5  1  6
  6  8  2  0
  6  9  1  0
  7 10  1  0
  7 11  1  0
  8 12  1  0
  9 13  1  0
  9 14  1  1
 10 15  1  6
 11 16  1  0
 11 17  1  1
 12 18  1  0
 15 19  1  0
 16 20  1  0
 16 21  1  1
 17 22  1  0
 20 23  1  1
  4  5  1  0
  9 10  1  0
 13 18  1  0
 16 19  1  0
 20 22  1  0
M  END
