
     RDKit          3D

 32 37  0  0  0  0  0  0  0  0999 V2000
    4.6112    3.4047    4.6747 S   0  0  0  0  0  0  0  0  0  0  0  0
    5.5859    4.6429    3.8012 C   0  0  0  0  0  0  0  0  0  0  0  0
    5.8068    1.9787    4.6927 C   0  0  1  0  0  0  0  0  0  0  0  0
    5.0049    5.5560    2.8753 C   0  0  0  0  0  0  0  0  0  0  0  0
    6.9603    4.6932    4.0775 C   0  0  0  0  0  0  0  0  0  0  0  0
    5.0556    0.6031    4.7252 C   0  0  1  0  0  0  0  0  0  0  0  0
    6.6814    2.1665    3.4269 C   0  0  0  0  0  0  0  0  0  0  0  0
    5.8553    6.4869    2.2254 C   0  0  0  0  0  0  0  0  0  0  0  0
    3.6264    5.5962    2.5493 C   0  0  0  0  0  0  0  0  0  0  0  0
    7.7778    5.6153    3.4337 C   0  0  0  0  0  0  0  0  0  0  0  0
    6.0125   -0.5708    4.3339 C   0  0  1  0  0  0  0  0  0  0  0  0
    4.2383    0.2054    6.0204 C   0  0  0  0  0  0  0  0  0  0  0  0
    7.5153    0.9651    3.0685 C   0  0  0  0  0  0  0  0  0  0  0  0
    7.2285    6.5016    2.5117 C   0  0  0  0  0  0  0  0  0  0  0  0
    5.3249    7.3960    1.2948 C   0  0  0  0  0  0  0  0  0  0  0  0
    3.1142    6.5066    1.6219 C   0  0  0  0  0  0  0  0  0  0  0  0
    6.7617   -0.3510    2.9769 C   0  0  1  0  0  0  0  0  0  0  0  0
    6.9899   -0.9198    5.4915 C   0  0  0  0  0  0  0  0  0  0  0  0
    4.9218   -0.8363    6.9578 C   0  0  1  0  0  0  0  0  0  0  0  0
    3.8299    1.3434    6.9700 C   0  0  0  0  0  0  0  0  0  0  0  0
    8.8405    1.0770    2.8659 C   0  0  0  0  0  0  0  0  0  0  0  0
    3.9643    7.4056    0.9937 C   0  0  0  0  0  0  0  0  0  0  0  0
    7.6922   -1.5213    2.6875 C   0  0  0  0  0  0  0  0  0  0  0  0
    5.7693   -0.3120    1.7914 C   0  0  0  0  0  0  0  0  0  0  0  0
    6.4360   -0.7007    6.8957 C   0  0  0  0  0  0  0  0  0  0  0  0
    4.4151   -0.4339    8.3391 C   0  0  0  0  0  0  0  0  0  0  0  0
    4.4411   -2.2753    6.7193 C   0  0  0  0  0  0  0  0  0  0  0  0
    3.4160    0.6784    8.2704 C   0  0  0  0  0  0  0  0  0  0  0  0
    9.6800   -0.0970    2.5429 C   0  0  0  0  0  0  0  0  0  0  0  0
    9.0121   -1.4123    2.4838 C   0  0  0  0  0  0  0  0  0  0  0  0
    4.7452   -0.9815    9.3842 O   0  0  0  0  0  0  0  0  0  0  0  0
   10.8827    0.0155    2.3439 O   0  0  0  0  0  0  0  0  0  0  0  0
  1  2  1  0
  3  1  1  6
  2  4  4  0
  2  5  4  0
  6  3  1  0
  3  7  1  0
  4  8  4  0
  4  9  4  0
  5 10  4  0
  6 11  1  0
  6 12  1  1
  7 13  1  0
  8 14  4  0
  8 15  4  0
  9 16  4  0
 11 17  1  0
 11 18  1  1
 12 19  1  0
 12 20  1  0
 13 21  2  0
 15 22  4  0
 17 23  1  0
 17 24  1  6
 18 25  1  0
 19 26  1  0
 19 27  1  6
 20 28  1  0
 21 29  1  0
 23 30  2  0
 26 31  2  0
 29 32  2  0
 10 14  4  0
 13 17  1  0
 16 22  4  0
 19 25  1  0
 26 28  1  0
 29 30  1  0
M  END
