
     RDKit          3D

 23 26  0  0  0  0  0  0  0  0999 V2000
    3.3364    8.0753    2.4234 O   0  0  0  0  0  0  0  0  0  0  0  0
    3.9074    7.0562    2.8065 C   0  0  0  0  0  0  0  0  0  0  0  0
    5.3796    6.9603    2.6741 C   0  0  0  0  0  0  0  0  0  0  0  0
    3.1635    5.9278    3.4632 C   0  0  0  0  0  0  0  0  0  0  0  0
    6.0908    5.9023    3.1111 C   0  0  0  0  0  0  0  0  0  0  0  0
    3.9093    4.6138    3.2927 C   0  0  0  0  0  0  0  0  0  0  0  0
    7.5634    5.8570    2.9910 C   0  0  0  0  0  0  0  0  0  0  0  0
    5.3950    4.6753    3.7477 C   0  0  1  0  0  0  0  0  0  0  0  0
    8.2506    4.7219    3.2298 C   0  0  0  0  0  0  0  0  0  0  0  0
    8.3490    7.1045    2.6147 C   0  0  0  0  0  0  0  0  0  0  0  0
    6.1245    3.3774    3.2576 C   0  0  0  0  0  0  0  0  0  0  0  0
    5.4419    4.8196    5.2875 C   0  0  0  0  0  0  0  0  0  0  0  0
    7.6371    3.4090    3.6242 C   0  0  1  0  0  0  0  0  0  0  0  0
    8.3365    7.3770    1.1151 C   0  0  0  0  0  0  0  0  0  0  0  0
    5.4684    2.0354    3.6764 C   0  0  0  0  0  0  0  0  0  0  0  0
    8.2930    2.1927    2.9605 C   0  0  2  0  0  0  0  0  0  0  0  0
    6.2355    0.8035    3.1541 C   0  0  0  0  0  0  0  0  0  0  0  0
    7.7136    0.8751    3.5267 C   0  0  1  0  0  0  0  0  0  0  0  0
    9.8036    1.9884    3.0311 C   0  0  0  0  0  0  0  0  0  0  0  0
    8.6434   -0.0928    2.8186 C   0  0  0  0  0  0  0  0  0  0  0  0
    7.9118    0.6416    5.0370 C   0  0  0  0  0  0  0  0  0  0  0  0
    9.9779    0.5583    2.4967 C   0  0  0  0  0  0  0  0  0  0  0  0
    8.3717   -1.2580    2.5624 O   0  0  0  0  0  0  0  0  0  0  0  0
  1  2  2  0
  2  3  1  0
  2  4  1  0
  3  5  2  0
  4  6  1  0
  5  7  1  0
  5  8  1  0
  7  9  2  0
  7 10  1  0
  8 11  1  0
  8 12  1  1
 13  9  1  6
 10 14  1  0
 11 15  1  0
 13 16  1  0
 15 17  1  0
 16 18  1  0
 16 19  1  1
 18 20  1  0
 18 21  1  1
 19 22  1  0
 20 23  2  0
  6  8  1  0
 11 13  1  0
 17 18  1  0
 20 22  1  0
M  END
