
     RDKit          3D

 23 27  0  0  0  0  0  0  0  0999 V2000
    3.7117    7.7043    2.1671 O   0  0  0  0  0  0  0  0  0  0  0  0
    4.5191    6.8800    2.5903 C   0  0  0  0  0  0  0  0  0  0  0  0
    5.4953    6.2771    1.6476 C   0  0  0  0  0  0  0  0  0  0  0  0
    4.5931    6.4962    4.0487 C   0  0  0  0  0  0  0  0  0  0  0  0
    6.4636    5.4371    2.0633 C   0  0  0  0  0  0  0  0  0  0  0  0
    5.2241    5.1131    4.2069 C   0  0  0  0  0  0  0  0  0  0  0  0
    6.6327    5.0177    3.5370 C   0  0  1  0  0  0  0  0  0  0  0  0
    7.4575    4.8978    1.0638 C   0  0  0  0  0  0  0  0  0  0  0  0
    7.1985    3.5419    3.5928 C   0  0  2  0  0  0  0  0  0  0  0  0
    7.5913    6.0070    4.2496 C   0  0  0  0  0  0  0  0  0  0  0  0
    8.7639    4.4801    1.7286 C   0  0  0  0  0  0  0  0  0  0  0  0
    8.5556    3.3867    2.7954 C   0  0  0  0  0  0  0  0  0  0  0  0
    6.1812    2.4302    3.1937 C   0  0  0  0  0  0  0  0  0  0  0  0
    8.9921    5.7552    4.0213 O   0  0  0  0  0  0  0  0  0  0  0  0
    8.5093    7.0181    3.5815 C   0  0  0  0  0  0  0  0  0  0  0  0
    8.6627    1.9866    2.1700 C   0  0  2  0  0  0  0  0  0  0  0  0
    6.7144    0.9887    3.3487 C   0  0  0  0  0  0  0  0  0  0  0  0
    8.2244    0.8812    3.1442 C   0  0  1  0  0  0  0  0  0  0  0  0
   10.0275    1.5249    1.6617 C   0  0  0  0  0  0  0  0  0  0  0  0
    8.6965   -0.3284    2.3545 C   0  0  0  0  0  0  0  0  0  0  0  0
    8.9735    0.8412    4.4870 C   0  0  0  0  0  0  0  0  0  0  0  0
    9.8085    0.0333    1.3905 C   0  0  0  0  0  0  0  0  0  0  0  0
    8.2599   -1.4628    2.4921 O   0  0  0  0  0  0  0  0  0  0  0  0
  1  2  2  0
  2  3  1  0
  2  4  1  0
  3  5  2  0
  4  6  1  0
  5  7  1  0
  5  8  1  0
  7  9  1  0
  7 10  1  1
  8 11  1  0
  9 12  1  0
  9 13  1  6
 10 14  1  0
 10 15  1  0
 12 16  1  0
 13 17  1  0
 16 18  1  0
 16 19  1  1
 18 20  1  0
 18 21  1  1
 19 22  1  0
 20 23  2  0
  6  7  1  0
 11 12  1  0
 14 15  1  0
 17 18  1  0
 20 22  1  0
M  END
