
     RDKit          3D

 31 35  0  0  0  0  0  0  0  0999 V2000
    9.6624   -1.2966   -1.2402 O   0  0  0  0  0  0  0  0  0  0  0  0
    8.9775   -2.2248   -0.7839 N   0  0  0  0  0  0  0  0  0  0  0  0
    9.2237   -3.4288   -0.9483 O   0  0  0  0  0  0  0  0  0  0  0  0
    7.7867   -1.8736   -0.0020 C   0  0  0  0  0  0  0  0  0  0  0  0
    6.5286   -2.3204   -0.4150 C   0  0  0  0  0  0  0  0  0  0  0  0
    7.9178   -1.0821    1.1443 C   0  0  0  0  0  0  0  0  0  0  0  0
    5.3952   -1.9685    0.3238 C   0  0  0  0  0  0  0  0  0  0  0  0
    6.7777   -0.7385    1.8763 C   0  0  0  0  0  0  0  0  0  0  0  0
    5.5033   -1.1813    1.4817 C   0  0  0  0  0  0  0  0  0  0  0  0
    4.2978   -0.7334    2.2940 C   0  0  0  0  0  0  0  0  0  0  0  0
    4.5136    0.4187    3.2624 C   0  0  0  0  0  0  0  0  0  0  0  0
    4.5763    1.6622    2.7441 C   0  0  0  0  0  0  0  0  0  0  0  0
    4.3915    0.1483    4.7646 C   0  0  0  0  0  0  0  0  0  0  0  0
    4.6286    2.8850    3.5179 C   0  0  0  0  0  0  0  0  0  0  0  0
    4.0998    1.4826    5.5461 C   0  0  0  0  0  0  0  0  0  0  0  0
    5.5160   -0.6660    5.4868 C   0  0  0  0  0  0  0  0  0  0  0  0
    4.4555    4.0655    2.8992 C   0  0  0  0  0  0  0  0  0  0  0  0
    4.8756    2.7474    5.0139 C   0  0  2  0  0  0  0  0  0  0  0  0
    4.1986    1.3216    7.0784 C   0  0  0  0  0  0  0  0  0  0  0  0
    5.1071   -1.0181    6.9577 C   0  0  1  0  0  0  0  0  0  0  0  0
    5.8769   -2.0438    4.9099 C   0  0  0  0  0  0  0  0  0  0  0  0
    4.5111    5.3491    3.6349 C   0  0  0  0  0  0  0  0  0  0  0  0
    4.3352    4.0098    5.7463 C   0  0  0  0  0  0  0  0  0  0  0  0
    6.4075    2.6578    5.2150 C   0  0  0  0  0  0  0  0  0  0  0  0
    4.0009   -0.1168    7.5200 C   0  0  0  0  0  0  0  0  0  0  0  0
    4.5782   -2.4412    6.8127 C   0  0  0  0  0  0  0  0  0  0  0  0
    6.3301   -1.0472    7.8855 C   0  0  0  0  0  0  0  0  0  0  0  0
    4.8397   -3.0127    5.4495 C   0  0  0  0  0  0  0  0  0  0  0  0
    4.3865    6.4020    3.0128 O   0  0  0  0  0  0  0  0  0  0  0  0
    4.7795    5.3251    5.1175 C   0  0  0  0  0  0  0  0  0  0  0  0
    3.9864   -3.0516    7.6946 O   0  0  0  0  0  0  0  0  0  0  0  0
  1  2  2  0
  2  3  1  0
  2  4  1  0
  4  5  4  0
  4  6  4  0
  5  7  4  0
  6  8  4  0
  7  9  4  0
  9 10  1  0
 10 11  1  0
 11 12  2  0
 11 13  1  0
 12 14  1  0
 13 15  1  0
 13 16  1  0
 14 17  2  0
 14 18  1  0
 15 19  1  0
 16 20  1  0
 16 21  1  0
 17 22  1  0
 18 23  1  0
 18 24  1  6
 19 25  1  0
 20 26  1  0
 20 27  1  1
 21 28  1  0
 22 29  2  0
 22 30  1  0
 26 31  2  0
  8  9  4  0
 15 18  1  0
 20 25  1  0
 23 30  1  0
 26 28  1  0
M  CHG  2   2   1   3  -1
M  END
