
     RDKit          3D

 20 22  0  0  0  0  0  0  0  0999 V2000
    9.7811    2.9582    2.2998 N   0  0  0  0  0  0  0  0  0  0  0  0
    8.8102    2.1306    2.7394 N   0  0  0  0  0  0  0  0  0  0  0  0
   10.1792    2.3260    1.1926 C   0  0  0  0  0  0  0  0  0  0  0  0
    8.6770    1.0554    1.9156 C   0  0  0  0  0  0  0  0  0  0  0  0
    8.0973    2.3966    3.9782 C   0  0  0  0  0  0  0  0  0  0  0  0
    9.5329    1.1530    0.9241 N   0  0  0  0  0  0  0  0  0  0  0  0
    7.1075    3.5333    3.8408 C   0  0  0  0  0  0  0  0  0  0  0  0
    7.5925    4.7194    3.1063 C   0  0  0  0  0  0  0  0  0  0  0  0
    5.8627    3.4393    4.3546 C   0  0  0  0  0  0  0  0  0  0  0  0
    7.2747    4.8919    1.7528 C   0  0  0  0  0  0  0  0  0  0  0  0
    8.3549    5.6982    3.7576 C   0  0  0  0  0  0  0  0  0  0  0  0
    4.7949    4.4461    4.2893 C   0  0  0  0  0  0  0  0  0  0  0  0
    7.7102    6.0247    1.0633 C   0  0  0  0  0  0  0  0  0  0  0  0
    8.7900    6.8305    3.0658 C   0  0  0  0  0  0  0  0  0  0  0  0
    4.2018    4.9680    5.4444 C   0  0  0  0  0  0  0  0  0  0  0  0
    4.3900    4.9258    3.0380 C   0  0  0  0  0  0  0  0  0  0  0  0
    8.4662    6.9937    1.7201 C   0  0  0  0  0  0  0  0  0  0  0  0
    3.2025    5.9390    5.3482 C   0  0  0  0  0  0  0  0  0  0  0  0
    3.3915    5.8974    2.9426 C   0  0  0  0  0  0  0  0  0  0  0  0
    2.7970    6.4022    4.0977 C   0  0  0  0  0  0  0  0  0  0  0  0
  1  2  4  0
  1  3  4  0
  2  4  4  0
  2  5  1  0
  3  6  4  0
  5  7  1  0
  7  8  1  0
  7  9  2  0
  8 10  4  0
  8 11  4  0
  9 12  1  0
 10 13  4  0
 11 14  4  0
 12 15  4  0
 12 16  4  0
 13 17  4  0
 15 18  4  0
 16 19  4  0
 18 20  4  0
  4  6  4  0
 14 17  4  0
 19 20  4  0
M  END
