
     RDKit          3D

 32 37  0  0  0  0  0  0  0  0999 V2000
    4.3922    1.8820    5.5747 S   0  0  0  0  0  0  0  0  0  0  0  0
    4.4241    3.5888    5.0560 C   0  0  0  0  0  0  0  0  0  0  0  0
    6.0973    1.3378    5.1178 C   0  0  1  0  0  0  0  0  0  0  0  0
    3.9906    3.9119    3.7653 C   0  0  0  0  0  0  0  0  0  0  0  0
    4.8424    4.6075    5.9130 C   0  0  0  0  0  0  0  0  0  0  0  0
    6.2676   -0.1933    5.2871 C   0  0  1  0  0  0  0  0  0  0  0  0
    6.3163    1.7391    3.6433 C   0  0  0  0  0  0  0  0  0  0  0  0
    4.0014    5.2406    3.3103 C   0  0  0  0  0  0  0  0  0  0  0  0
    4.8594    5.9338    5.4749 C   0  0  0  0  0  0  0  0  0  0  0  0
    7.6672   -0.6532    4.7287 C   0  0  0  0  0  0  0  0  0  0  0  0
    6.2129   -0.7661    6.7127 C   0  0  2  0  0  0  0  0  0  0  0  0
    7.6375    1.2375    3.1108 C   0  0  0  0  0  0  0  0  0  0  0  0
    4.4455    6.2655    4.1763 C   0  0  0  0  0  0  0  0  0  0  0  0
    3.5821    5.5734    2.0119 C   0  0  0  0  0  0  0  0  0  0  0  0
    7.8934   -0.2706    3.2248 C   0  0  1  0  0  0  0  0  0  0  0  0
    8.0414   -2.1193    5.1201 C   0  0  0  0  0  0  0  0  0  0  0  0
    5.9276   -2.2835    6.6371 C   0  0  0  0  0  0  0  0  0  0  0  0
    5.2930   -0.2804    7.8266 C   0  0  0  0  0  0  0  0  0  0  0  0
    8.5363    2.1139    2.6250 C   0  0  0  0  0  0  0  0  0  0  0  0
    4.4601    7.5927    3.7198 C   0  0  0  0  0  0  0  0  0  0  0  0
    3.6035    6.8971    1.5729 C   0  0  0  0  0  0  0  0  0  0  0  0
    9.3137   -0.6124    2.7805 C   0  0  0  0  0  0  0  0  0  0  0  0
    6.9437   -1.0440    2.2861 C   0  0  0  0  0  0  0  0  0  0  0  0
    6.9795   -3.0061    5.7903 C   0  0  0  0  0  0  0  0  0  0  0  0
    5.9141   -2.5687    8.1323 C   0  0  0  0  0  0  0  0  0  0  0  0
    4.5198   -2.6794    6.1339 C   0  0  0  0  0  0  0  0  0  0  0  0
    5.5162   -1.3342    8.9248 C   0  0  0  0  0  0  0  0  0  0  0  0
    9.8729    1.6906    2.1639 C   0  0  0  0  0  0  0  0  0  0  0  0
    4.0415    7.9061    2.4257 C   0  0  0  0  0  0  0  0  0  0  0  0
   10.2056    0.2618    2.2948 C   0  0  0  0  0  0  0  0  0  0  0  0
    6.1608   -3.6533    8.6425 O   0  0  0  0  0  0  0  0  0  0  0  0
   10.6747    2.4932    1.7039 O   0  0  0  0  0  0  0  0  0  0  0  0
  1  2  1  0
  3  1  1  6
  2  4  4  0
  2  5  4  0
  6  3  1  0
  3  7  1  0
  4  8  4  0
  5  9  4  0
  6 10  1  1
  6 11  1  0
  7 12  1  0
  8 13  4  0
  8 14  4  0
 10 15  1  0
 10 16  1  0
 11 17  1  0
 11 18  1  1
 12 19  2  0
 13 20  4  0
 14 21  4  0
 15 22  1  0
 15 23  1  6
 16 24  1  0
 17 25  1  0
 17 26  1  0
 18 27  1  0
 19 28  1  0
 20 29  4  0
 22 30  2  0
 25 31  2  0
 28 32  2  0
  9 13  4  0
 12 15  1  0
 17 24  1  0
 21 29  4  0
 25 27  1  0
 28 30  1  0
M  END
