
     RDKit          3D

 22 25  0  0  0  0  0  0  0  0999 V2000
    3.5277    8.3744    1.9785 O   0  0  0  0  0  0  0  0  0  0  0  0
    4.0598    7.3888    2.4832 C   0  0  0  0  0  0  0  0  0  0  0  0
    5.5354    7.2817    2.4878 C   0  0  0  0  0  0  0  0  0  0  0  0
    3.2692    6.3093    3.1691 C   0  0  0  0  0  0  0  0  0  0  0  0
    6.1729    6.2164    3.0075 C   0  0  0  0  0  0  0  0  0  0  0  0
    3.9815    4.9676    3.0466 C   0  0  0  0  0  0  0  0  0  0  0  0
    5.4522    4.9773    3.5761 C   0  0  2  0  0  0  0  0  0  0  0  0
    7.6850    6.2243    3.0628 C   0  0  0  0  0  0  0  0  0  0  0  0
    5.5444    5.0321    5.1059 C   0  0  0  0  0  0  0  0  0  0  0  0
    6.1635    3.6731    3.0292 C   0  0  1  0  0  0  0  0  0  0  0  0
    8.2948    4.9419    2.5109 C   0  0  0  0  0  0  0  0  0  0  0  0
    4.5549    4.9966    6.0105 C   0  0  0  0  0  0  0  0  0  0  0  0
    7.7167    3.7048    3.2080 C   0  0  2  0  0  0  0  0  0  0  0  0
    5.5349    2.3499    3.5588 C   0  0  0  0  0  0  0  0  0  0  0  0
    8.2973    2.4105    2.6321 C   0  0  2  0  0  0  0  0  0  0  0  0
    6.2605    1.0775    3.0852 C   0  0  0  0  0  0  0  0  0  0  0  0
    7.7566    1.1661    3.3645 C   0  0  1  0  0  0  0  0  0  0  0  0
    9.8077    2.2012    2.6064 C   0  0  0  0  0  0  0  0  0  0  0  0
    8.6332    0.1204    2.6992 C   0  0  0  0  0  0  0  0  0  0  0  0
    8.0514    1.0918    4.8738 C   0  0  0  0  0  0  0  0  0  0  0  0
    9.9392    0.7231    2.2101 C   0  0  0  0  0  0  0  0  0  0  0  0
    8.3444   -1.0637    2.5901 O   0  0  0  0  0  0  0  0  0  0  0  0
  1  2  2  0
  2  3  1  0
  2  4  1  0
  3  5  2  0
  4  6  1  0
  5  7  1  0
  5  8  1  0
  7  9  1  1
  7 10  1  0
  8 11  1  0
  9 12  2  0
 10 13  1  0
 10 14  1  1
 13 15  1  0
 14 16  1  0
 15 17  1  0
 15 18  1  1
 17 19  1  0
 17 20  1  1
 18 21  1  0
 19 22  2  0
  6  7  1  0
 13 11  1  6
 16 17  1  0
 19 21  1  0
M  END
