
     RDKit          3D

 25 27  0  0  0  0  0  0  0  0999 V2000
    5.0712    7.7847    1.1780 Br  0  0  0  0  0  0  0  0  0  0  0  0
    5.7495    6.2364    2.0230 C   0  0  0  0  0  0  0  0  0  0  0  0
    5.0230    5.6292    3.0423 C   0  0  0  0  0  0  0  0  0  0  0  0
    6.9738    5.7095    1.6208 C   0  0  0  0  0  0  0  0  0  0  0  0
    5.5260    4.4843    3.6639 C   0  0  0  0  0  0  0  0  0  0  0  0
    7.4763    4.5640    2.2435 C   0  0  0  0  0  0  0  0  0  0  0  0
    6.7585    3.9343    3.2728 C   0  0  0  0  0  0  0  0  0  0  0  0
    7.2750    2.6805    3.9821 C   0  0  0  0  0  0  0  0  0  0  0  0
    6.4145    1.4061    3.7264 C   0  0  0  0  0  0  0  0  0  0  0  0
    8.7630    2.4230    3.6756 C   0  0  0  0  0  0  0  0  0  0  0  0
    5.2460    1.6673    2.9193 O   0  0  0  0  0  0  0  0  0  0  0  0
    5.9687    0.7493    5.0288 C   0  0  0  0  0  0  0  0  0  0  0  0
    8.9551    1.3339    2.7377 N   0  0  0  0  0  0  0  0  0  0  0  0
    4.6525    0.6028    2.3240 C   0  0  0  0  0  0  0  0  0  0  0  0
    4.6951    1.0333    5.5493 C   0  0  0  0  0  0  0  0  0  0  0  0
    6.7844   -0.1639    5.7155 C   0  0  0  0  0  0  0  0  0  0  0  0
    9.0776    1.5879    1.4230 N   0  0  0  0  0  0  0  0  0  0  0  0
    9.0485    0.0006    2.9976 C   0  0  0  0  0  0  0  0  0  0  0  0
    3.4490    0.4583    2.1710 O   0  0  0  0  0  0  0  0  0  0  0  0
    5.6865   -0.4002    1.9152 C   0  0  0  0  0  0  0  0  0  0  0  0
    4.2550    0.4269    6.7273 C   0  0  0  0  0  0  0  0  0  0  0  0
    6.3417   -0.7702    6.8926 C   0  0  0  0  0  0  0  0  0  0  0  0
    9.2374    0.4234    0.8080 N   0  0  0  0  0  0  0  0  0  0  0  0
    9.2216   -0.5603    1.7557 C   0  0  0  0  0  0  0  0  0  0  0  0
    5.0784   -0.4738    7.3986 C   0  0  0  0  0  0  0  0  0  0  0  0
  1  2  1  0
  2  3  4  0
  2  4  4  0
  3  5  4  0
  4  6  4  0
  5  7  4  0
  7  8  1  0
  8  9  1  0
  8 10  1  0
  9 11  1  0
  9 12  1  0
 10 13  1  0
 11 14  1  0
 12 15  4  0
 12 16  4  0
 13 17  4  0
 13 18  4  0
 14 19  2  0
 14 20  1  0
 15 21  4  0
 16 22  4  0
 17 23  4  0
 18 24  4  0
 21 25  4  0
  6  7  4  0
 22 25  4  0
 23 24  4  0
M  END
