
     RDKit          3D

 27 30  0  0  0  0  0  0  0  0999 V2000
    2.4029    7.5453    5.0507 Cl  0  0  0  0  0  0  0  0  0  0  0  0
    3.3871    6.1550    4.8099 C   0  0  0  0  0  0  0  0  0  0  0  0
    4.0366    5.5703    5.8955 C   0  0  0  0  0  0  0  0  0  0  0  0
    3.5292    5.6212    3.5304 C   0  0  0  0  0  0  0  0  0  0  0  0
    4.8378    4.4423    5.7007 C   0  0  0  0  0  0  0  0  0  0  0  0
    4.3312    4.4943    3.3332 C   0  0  0  0  0  0  0  0  0  0  0  0
    4.9938    3.9003    4.4173 C   0  0  0  0  0  0  0  0  0  0  0  0
    5.8525    2.7157    4.2006 C   0  0  0  0  0  0  0  0  0  0  0  0
    5.4712    1.4682    4.9253 C   0  0  0  0  0  0  0  0  0  0  0  0
    6.9295    2.7724    3.3801 C   0  0  0  0  0  0  0  0  0  0  0  0
    4.5011    1.4199    5.6754 O   0  0  0  0  0  0  0  0  0  0  0  0
    6.2609    0.3521    4.7224 O   0  0  0  0  0  0  0  0  0  0  0  0
    7.7257    1.5397    3.1762 C   0  0  0  0  0  0  0  0  0  0  0  0
    7.3400    4.0300    2.6217 C   0  0  0  0  0  0  0  0  0  0  0  0
    7.3642    0.3788    3.8557 C   0  0  0  0  0  0  0  0  0  0  0  0
    8.8393    1.4510    2.3312 C   0  0  0  0  0  0  0  0  0  0  0  0
    8.6533    4.6688    3.0398 C   0  0  0  0  0  0  0  0  0  0  0  0
    8.0593   -0.8303    3.7258 C   0  0  0  0  0  0  0  0  0  0  0  0
    9.5471    0.2489    2.1895 C   0  0  0  0  0  0  0  0  0  0  0  0
    8.6566    6.0214    3.4193 C   0  0  0  0  0  0  0  0  0  0  0  0
    9.8549    3.9503    3.1224 C   0  0  0  0  0  0  0  0  0  0  0  0
    9.1627   -0.8971    2.8845 C   0  0  0  0  0  0  0  0  0  0  0  0
    9.8332    6.6442    3.8396 C   0  0  0  0  0  0  0  0  0  0  0  0
   11.0318    4.5750    3.5420 C   0  0  0  0  0  0  0  0  0  0  0  0
    9.9383   -1.9977    2.6539 O   0  0  0  0  0  0  0  0  0  0  0  0
   11.0214    5.9213    3.8979 C   0  0  0  0  0  0  0  0  0  0  0  0
   10.0453   -2.4375    1.3052 C   0  0  0  0  0  0  0  0  0  0  0  0
  1  2  1  0
  2  3  4  0
  2  4  4  0
  3  5  4  0
  4  6  4  0
  5  7  4  0
  7  8  1  0
  8  9  4  0
  8 10  4  0
  9 11  2  0
  9 12  4  0
 10 13  4  0
 10 14  1  0
 12 15  4  0
 13 16  4  0
 14 17  1  0
 15 18  4  0
 16 19  4  0
 17 20  4  0
 17 21  4  0
 18 22  4  0
 20 23  4  0
 21 24  4  0
 22 25  1  0
 23 26  4  0
 25 27  1  0
  6  7  4  0
 13 15  4  0
 19 22  4  0
 24 26  4  0
M  END
