
     RDKit          3D

 24 27  0  0  0  0  0  0  0  0999 V2000
   11.2374   -0.9675    1.8582 O   0  0  0  0  0  0  0  0  0  0  0  0
   10.0178   -0.9325    1.9528 C   0  0  0  0  0  0  0  0  0  0  0  0
    9.2517   -0.0669    2.9369 C   0  0  2  0  0  0  0  0  0  0  0  0
    9.0773   -1.7822    1.1147 C   0  0  0  0  0  0  0  0  0  0  0  0
    7.9257    0.0366    2.1559 C   0  0  1  0  0  0  0  0  0  0  0  0
    9.7764    1.3479    3.1543 C   0  0  0  0  0  0  0  0  0  0  0  0
    9.1972   -0.8512    4.2609 C   0  0  0  0  0  0  0  0  0  0  0  0
    7.6896   -1.3763    1.6332 C   0  0  0  0  0  0  0  0  0  0  0  0
    6.8426    0.7406    2.9770 C   0  0  1  0  0  0  0  0  0  0  0  0
    8.7505    2.2125    3.9125 C   0  0  0  0  0  0  0  0  0  0  0  0
    7.3308    2.2034    3.2807 C   0  0  2  0  0  0  0  0  0  0  0  0
    5.4861    0.7399    2.2561 C   0  0  0  0  0  0  0  0  0  0  0  0
    6.2497    3.0245    4.0784 C   0  0  2  0  0  0  0  0  0  0  0  0
    4.4194    1.5443    3.0130 C   0  0  1  0  0  0  0  0  0  0  0  0
    4.9571    2.9534    3.2372 C   0  0  0  0  0  0  0  0  0  0  0  0
    6.6729    4.5084    4.3153 C   0  0  0  0  0  0  0  0  0  0  0  0
    6.0134    2.4371    5.4928 C   0  0  0  0  0  0  0  0  0  0  0  0
    3.2159    1.5816    2.2239 O   0  0  0  0  0  0  0  0  0  0  0  0
    4.4137    4.0444    2.6575 C   0  0  0  0  0  0  0  0  0  0  0  0
    6.4878    5.3899    3.0886 C   0  0  0  0  0  0  0  0  0  0  0  0
    2.7865    0.3851    1.7433 C   0  0  0  0  0  0  0  0  0  0  0  0
    5.0178    5.4149    2.6873 C   0  0  0  0  0  0  0  0  0  0  0  0
    2.7509   -0.6654    2.3681 O   0  0  0  0  0  0  0  0  0  0  0  0
    2.3632    0.5329    0.3140 C   0  0  0  0  0  0  0  0  0  0  0  0
  1  2  2  0
  2  3  1  0
  2  4  1  0
  3  5  1  0
  3  6  1  0
  3  7  1  1
  4  8  1  0
  5  9  1  0
  6 10  1  0
  9 11  1  0
  9 12  1  6
 11 13  1  0
 12 14  1  0
 13 15  1  0
 13 16  1  0
 13 17  1  1
 14 18  1  6
 15 19  2  0
 16 20  1  0
 18 21  1  0
 19 22  1  0
 21 23  2  0
 21 24  1  0
  5  8  1  1
 11 10  1  1
 14 15  1  0
 20 22  1  0
M  END
