
     RDKit          3D

 22 25  0  0  0  0  0  0  0  0999 V2000
    5.8692    5.1881    4.8878 O   0  0  0  0  0  0  0  0  0  0  0  0
    7.0417    4.8590    4.1365 C   0  0  1  0  0  0  0  0  0  0  0  0
    7.0161    3.3784    3.7734 C   0  0  0  0  0  0  0  0  0  0  0  0
    7.2103    5.7730    2.8787 C   0  0  2  0  0  0  0  0  0  0  0  0
    8.1570    2.7038    3.2518 C   0  0  0  0  0  0  0  0  0  0  0  0
    5.8263    2.6539    3.9293 C   0  0  0  0  0  0  0  0  0  0  0  0
    6.9237    7.2304    3.1281 N   0  0  0  0  0  0  0  0  0  0  0  0
    6.4423    5.2891    1.6247 C   0  0  0  0  0  0  0  0  0  0  0  0
    8.0107    1.3334    2.9234 C   0  0  0  0  0  0  0  0  0  0  0  0
    9.4217    3.3099    3.0401 C   0  0  0  0  0  0  0  0  0  0  0  0
    5.8013    1.3205    3.5778 C   0  0  0  0  0  0  0  0  0  0  0  0
    5.4647    7.5139    2.9948 C   0  0  0  0  0  0  0  0  0  0  0  0
    7.6142    7.9947    2.0547 C   0  0  0  0  0  0  0  0  0  0  0  0
    6.0317    6.5127    0.7783 C   0  0  1  0  0  0  0  0  0  0  0  0
    6.8621    0.6582    3.0799 N   0  0  0  0  0  0  0  0  0  0  0  0
    9.0986    0.6401    2.4106 C   0  0  0  0  0  0  0  0  0  0  0  0
   10.4987    2.5895    2.5228 C   0  0  0  0  0  0  0  0  0  0  0  0
    4.9352    7.2870    1.5507 C   0  0  1  0  0  0  0  0  0  0  0  0
    7.2539    7.4456    0.6615 C   0  0  0  0  0  0  0  0  0  0  0  0
   10.3368    1.2499    2.2069 C   0  0  0  0  0  0  0  0  0  0  0  0
    3.5787    6.6351    1.3785 C   0  0  0  0  0  0  0  0  0  0  0  0
    2.7802    6.6213    0.3036 C   0  0  0  0  0  0  0  0  0  0  0  0
  2  1  1  6
  2  3  1  0
  2  4  1  0
  3  5  4  0
  3  6  4  0
  4  7  1  0
  4  8  1  6
  5  9  4  0
  5 10  4  0
  6 11  4  0
  7 12  1  0
  7 13  1  0
 14  8  1  1
  9 15  4  0
  9 16  4  0
 10 17  4  0
 12 18  1  0
 13 19  1  0
 16 20  4  0
 18 21  1  1
 21 22  2  0
 11 15  4  0
 14 18  1  0
 14 19  1  0
 17 20  4  0
M  END
