
     RDKit          3D

 22 24  0  0  0  0  0  0  0  0999 V2000
    2.9252    8.4947    3.5603 F   0  0  0  0  0  0  0  0  0  0  0  0
    3.4618    7.2794    3.7311 C   0  0  0  0  0  0  0  0  0  0  0  0
    3.9277    6.9062    4.9849 C   0  0  0  0  0  0  0  0  0  0  0  0
    3.5458    6.4103    2.6518 C   0  0  0  0  0  0  0  0  0  0  0  0
    4.4853    5.6387    5.1654 C   0  0  0  0  0  0  0  0  0  0  0  0
    4.1039    5.1436    2.8304 C   0  0  0  0  0  0  0  0  0  0  0  0
    4.5752    4.7367    4.0916 C   0  0  0  0  0  0  0  0  0  0  0  0
    5.1778    3.3583    4.3024 C   0  0  0  0  0  0  0  0  0  0  0  0
    4.9005    2.9029    5.6358 O   0  0  0  0  0  0  0  0  0  0  0  0
    6.7019    3.2114    4.0100 C   0  0  0  0  0  0  0  0  0  0  0  0
    7.3316    4.4501    3.3670 C   0  0  0  0  0  0  0  0  0  0  0  0
    7.0432    1.9239    3.2356 C   0  0  0  0  0  0  0  0  0  0  0  0
    7.1613    4.6631    1.9885 C   0  0  0  0  0  0  0  0  0  0  0  0
    8.0916    5.3808    4.0940 C   0  0  0  0  0  0  0  0  0  0  0  0
    8.4143    1.8872    2.7722 N   0  0  0  0  0  0  0  0  0  0  0  0
    7.7195    5.7773    1.3597 C   0  0  0  0  0  0  0  0  0  0  0  0
    8.6498    6.4952    3.4626 C   0  0  0  0  0  0  0  0  0  0  0  0
    8.7286    1.2737    1.6197 N   0  0  0  0  0  0  0  0  0  0  0  0
    9.5148    2.4330    3.3607 C   0  0  0  0  0  0  0  0  0  0  0  0
    8.4613    6.6949    2.0976 C   0  0  0  0  0  0  0  0  0  0  0  0
   10.0385    1.3923    1.4507 N   0  0  0  0  0  0  0  0  0  0  0  0
   10.5377    2.1028    2.5052 C   0  0  0  0  0  0  0  0  0  0  0  0
  1  2  1  0
  2  3  4  0
  2  4  4  0
  3  5  4  0
  4  6  4  0
  5  7  4  0
  7  8  1  0
  8  9  1  0
  8 10  1  0
 10 11  1  0
 10 12  1  0
 11 13  4  0
 11 14  4  0
 12 15  1  0
 13 16  4  0
 14 17  4  0
 15 18  4  0
 15 19  4  0
 16 20  4  0
 18 21  4  0
 19 22  4  0
  6  7  4  0
 17 20  4  0
 21 22  4  0
M  END
