
     RDKit          3D

 22 25  0  0  0  0  0  0  0  0999 V2000
    5.7119    5.5415    5.6815 S   0  0  0  0  0  0  0  0  0  0  0  0
    5.3856    4.8463    3.9644 C   0  0  2  0  0  0  0  0  0  0  0  0
    4.5298    4.6055    6.6904 C   0  0  0  0  0  0  0  0  0  0  0  0
    5.9405    5.8062    2.9294 C   0  0  0  0  0  0  0  0  0  0  0  0
    3.8792    4.6969    3.8755 C   0  0  0  0  0  0  0  0  0  0  0  0
    6.1046    3.4528    3.8730 C   0  0  2  0  0  0  0  0  0  0  0  0
    5.1713    6.4285    2.0175 C   0  0  0  0  0  0  0  0  0  0  0  0
    7.4338    5.9942    2.9451 C   0  0  0  0  0  0  0  0  0  0  0  0
    3.1101    5.3154    2.9680 C   0  0  0  0  0  0  0  0  0  0  0  0
    7.6676    3.5427    3.7101 C   0  0  2  0  0  0  0  0  0  0  0  0
    5.5384    2.4617    2.8238 C   0  0  0  0  0  0  0  0  0  0  0  0
    3.7057    6.2288    1.9711 C   0  0  0  0  0  0  0  0  0  0  0  0
    8.1210    4.6566    2.7361 C   0  0  0  0  0  0  0  0  0  0  0  0
    8.2470    2.2119    3.1828 C   0  0  2  0  0  0  0  0  0  0  0  0
    6.0602    1.0163    3.0377 C   0  0  0  0  0  0  0  0  0  0  0  0
    3.0127    6.8005    1.1398 O   0  0  0  0  0  0  0  0  0  0  0  0
    7.4898    0.9511    3.6200 C   0  0  1  0  0  0  0  0  0  0  0  0
    9.7100    1.8978    3.4857 C   0  0  0  0  0  0  0  0  0  0  0  0
    8.3934   -0.1172    2.9601 C   0  0  1  0  0  0  0  0  0  0  0  0
    7.4500    0.7186    5.1511 C   0  0  0  0  0  0  0  0  0  0  0  0
    9.8269    0.3864    3.2188 C   0  0  0  0  0  0  0  0  0  0  0  0
    8.2119   -1.4191    3.4821 O   0  0  0  0  0  0  0  0  0  0  0  0
  2  1  1  1
  1  3  1  0
  2  4  1  0
  2  5  1  0
  2  6  1  0
  4  7  2  0
  4  8  1  0
  5  9  2  0
  6 10  1  0
  6 11  1  6
  7 12  1  0
  8 13  1  0
 10 14  1  0
 11 15  1  0
 12 16  2  0
 14 17  1  0
 14 18  1  1
 17 19  1  0
 17 20  1  1
 18 21  1  0
 19 22  1  1
  9 12  1  0
 10 13  1  6
 15 17  1  0
 19 21  1  0
M  END
