
     RDKit          3D

 22 25  0  0  0  0  0  0  0  0999 V2000
    3.0095    7.0806    1.2514 O   0  0  0  0  0  0  0  0  0  0  0  0
    3.7365    6.3446    1.9051 C   0  0  0  0  0  0  0  0  0  0  0  0
    5.1963    6.2996    1.6794 C   0  0  0  0  0  0  0  0  0  0  0  0
    3.1896    5.4046    2.9017 C   0  0  0  0  0  0  0  0  0  0  0  0
    6.0224    5.6084    2.4890 C   0  0  0  0  0  0  0  0  0  0  0  0
    4.0119    4.7332    3.7198 C   0  0  0  0  0  0  0  0  0  0  0  0
    5.5397    4.9080    3.7555 C   0  0  1  0  0  0  0  0  0  0  0  0
    7.4386    5.3901    2.0204 C   0  0  0  0  0  0  0  0  0  0  0  0
    6.2254    3.4972    3.8665 C   0  0  2  0  0  0  0  0  0  0  0  0
    5.7020    5.7845    5.0491 C   0  0  0  0  0  0  0  0  0  0  0  0
    8.3810    4.7357    3.0190 C   0  0  0  0  0  0  0  0  0  0  0  0
    7.7984    3.5192    3.7635 C   0  0  2  0  0  0  0  0  0  0  0  0
    5.6358    2.4405    2.8757 C   0  0  0  0  0  0  0  0  0  0  0  0
    4.8948    5.4913    6.2987 C   0  0  0  0  0  0  0  0  0  0  0  0
    8.3226    2.2173    3.1255 C   0  0  2  0  0  0  0  0  0  0  0  0
    6.1503    1.0044    3.1137 C   0  0  0  0  0  0  0  0  0  0  0  0
    7.5860    0.9671    3.6373 C   0  0  1  0  0  0  0  0  0  0  0  0
    9.8038    1.8730    3.2836 C   0  0  0  0  0  0  0  0  0  0  0  0
    8.4832   -0.0970    3.0241 C   0  0  0  0  0  0  0  0  0  0  0  0
    7.6295    0.7401    5.1590 C   0  0  0  0  0  0  0  0  0  0  0  0
    9.8806    0.4323    2.7642 C   0  0  0  0  0  0  0  0  0  0  0  0
    8.1383   -1.2482    2.7911 O   0  0  0  0  0  0  0  0  0  0  0  0
  1  2  2  0
  2  3  1  0
  2  4  1  0
  3  5  2  0
  4  6  2  0
  5  7  1  0
  5  8  1  0
  7  9  1  0
  7 10  1  1
  8 11  1  0
  9 12  1  0
  9 13  1  6
 10 14  1  0
 12 15  1  0
 13 16  1  0
 15 17  1  0
 15 18  1  1
 17 19  1  0
 17 20  1  1
 18 21  1  0
 19 22  2  0
  6  7  1  0
 12 11  1  6
 16 17  1  0
 19 21  1  0
M  END
