
     RDKit          3D

 21 23  0  0  0  0  0  0  0  0999 V2000
    9.1672    3.8135    2.5224 N   0  0  0  0  0  0  0  0  0  0  0  0
    9.5382    2.3957    2.3188 C   0  0  0  0  0  0  0  0  0  0  0  0
    8.3107    4.3596    1.4520 C   0  0  0  0  0  0  0  0  0  0  0  0
    8.6298    4.1091    3.8605 C   0  0  0  0  0  0  0  0  0  0  0  0
   10.1857    2.2049    0.9359 C   0  0  0  0  0  0  0  0  0  0  0  0
   10.5336    1.8594    3.3633 C   0  0  0  0  0  0  0  0  0  0  0  0
    6.8511    4.5125    1.8880 C   0  0  0  0  0  0  0  0  0  0  0  0
    7.9943    5.5013    3.8920 C   0  0  0  0  0  0  0  0  0  0  0  0
    6.6735    5.5692    3.0398 C   0  0  0  0  0  0  0  0  0  0  0  0
    6.4271    6.9795    2.4193 C   0  0  0  0  0  0  0  0  0  0  0  0
    5.4502    5.2504    3.9559 C   0  0  0  0  0  0  0  0  0  0  0  0
    7.3020    8.0654    2.6036 C   0  0  0  0  0  0  0  0  0  0  0  0
    5.2423    7.2310    1.6946 C   0  0  0  0  0  0  0  0  0  0  0  0
    4.6122    6.2970    4.3967 C   0  0  0  0  0  0  0  0  0  0  0  0
    5.0800    3.9428    4.3194 C   0  0  0  0  0  0  0  0  0  0  0  0
    7.0341    9.3208    2.0454 C   0  0  0  0  0  0  0  0  0  0  0  0
    4.9734    8.4847    1.1381 C   0  0  0  0  0  0  0  0  0  0  0  0
    3.4966    6.0544    5.2030 C   0  0  0  0  0  0  0  0  0  0  0  0
    3.9636    3.6993    5.1278 C   0  0  0  0  0  0  0  0  0  0  0  0
    5.8746    9.5285    1.3070 C   0  0  0  0  0  0  0  0  0  0  0  0
    3.1769    4.7547    5.5756 C   0  0  0  0  0  0  0  0  0  0  0  0
  1  2  1  0
  1  3  1  0
  1  4  1  0
  2  5  1  0
  2  6  1  0
  3  7  1  0
  4  8  1  0
  7  9  1  0
  9 10  1  0
  9 11  1  0
 10 12  4  0
 10 13  4  0
 11 14  4  0
 11 15  4  0
 12 16  4  0
 13 17  4  0
 14 18  4  0
 15 19  4  0
 16 20  4  0
 18 21  4  0
  8  9  1  0
 17 20  4  0
 19 21  4  0
M  END
