
     RDKit          3D

 29 33  0  0  0  0  0  0  0  0999 V2000
   10.4254    1.4662   -0.7869 O   0  0  0  0  0  0  0  0  0  0  0  0
   10.0603    1.1181    0.3326 C   0  0  0  0  0  0  0  0  0  0  0  0
    9.7496    2.1396    1.3588 C   0  0  0  0  0  0  0  0  0  0  0  0
    9.8143   -0.3234    0.6914 C   0  0  0  0  0  0  0  0  0  0  0  0
    9.4479    1.8012    2.6280 C   0  0  0  0  0  0  0  0  0  0  0  0
   10.2500   -0.5582    2.1261 C   0  0  0  0  0  0  0  0  0  0  0  0
    9.5300    0.3582    3.1588 C   0  0  2  0  0  0  0  0  0  0  0  0
    8.8569    2.8063    3.6042 C   0  0  1  0  0  0  0  0  0  0  0  0
    8.0474   -0.0749    3.4461 C   0  0  2  0  0  0  0  0  0  0  0  0
   10.4063    0.2917    4.4364 C   0  0  0  0  0  0  0  0  0  0  0  0
    8.8208    4.1071    3.0157 O   0  0  0  0  0  0  0  0  0  0  0  0
    7.4200    2.3719    3.9307 C   0  0  0  0  0  0  0  0  0  0  0  0
    7.3357    0.9211    4.4328 C   0  0  1  0  0  0  0  0  0  0  0  0
    7.8792   -1.5506    3.8991 C   0  0  0  0  0  0  0  0  0  0  0  0
    7.8886    4.2107    1.9406 C   0  0  0  0  0  0  0  0  0  0  0  0
    5.8873    0.4583    4.6094 C   0  0  1  0  0  0  0  0  0  0  0  0
    6.4261   -1.9339    4.2404 C   0  0  0  0  0  0  0  0  0  0  0  0
    6.8912    5.3017    2.2373 C   0  0  0  0  0  0  0  0  0  0  0  0
    5.8147   -0.9509    5.2331 C   0  0  2  0  0  0  0  0  0  0  0  0
    4.9169    1.2864    5.4443 C   0  0  0  0  0  0  0  0  0  0  0  0
    6.0754    5.2380    3.3766 C   0  0  0  0  0  0  0  0  0  0  0  0
    6.7251    6.3738    1.3485 C   0  0  0  0  0  0  0  0  0  0  0  0
    4.3109   -1.0273    5.4279 C   0  0  0  0  0  0  0  0  0  0  0  0
    6.4453   -1.1049    6.6296 C   0  0  0  0  0  0  0  0  0  0  0  0
    3.7003    0.3569    5.5699 C   0  0  0  0  0  0  0  0  0  0  0  0
    5.1297    6.2324    3.6315 C   0  0  0  0  0  0  0  0  0  0  0  0
    5.7780    7.3678    1.6044 C   0  0  0  0  0  0  0  0  0  0  0  0
    3.6698   -2.0674    5.4930 O   0  0  0  0  0  0  0  0  0  0  0  0
    4.9818    7.2974    2.7458 C   0  0  0  0  0  0  0  0  0  0  0  0
  1  2  2  0
  2  3  1  0
  2  4  1  0
  3  5  2  0
  4  6  1  0
  5  7  1  0
  5  8  1  0
  7  9  1  0
  7 10  1  1
  8 11  1  6
  8 12  1  0
  9 13  1  0
  9 14  1  1
 11 15  1  0
 13 16  1  0
 14 17  1  0
 15 18  1  0
 16 19  1  0
 16 20  1  1
 18 21  4  0
 18 22  4  0
 19 23  1  0
 19 24  1  1
 20 25  1  0
 21 26  4  0
 22 27  4  0
 23 28  2  0
 26 29  4  0
  6  7  1  0
 13 12  1  6
 17 19  1  0
 23 25  1  0
 27 29  4  0
M  END
