
     RDKit          3D

 28 32  0  0  0  0  0  0  0  0999 V2000
   10.5047    1.6272   -0.4278 O   0  0  0  0  0  0  0  0  0  0  0  0
   10.0474    1.2799    0.6580 C   0  0  0  0  0  0  0  0  0  0  0  0
    9.3693    2.2799    1.5171 C   0  0  0  0  0  0  0  0  0  0  0  0
   10.2279   -0.1081    1.2019 C   0  0  0  0  0  0  0  0  0  0  0  0
    8.7983    1.9608    2.6959 C   0  0  0  0  0  0  0  0  0  0  0  0
    9.0132   -0.4958    2.0266 C   0  0  0  0  0  0  0  0  0  0  0  0
    8.6948    0.4975    3.1864 C   0  0  2  0  0  0  0  0  0  0  0  0
    8.2389    3.0273    3.6547 C   0  0  0  0  0  0  0  0  0  0  0  0
    7.2241    0.2063    3.6734 C   0  0  2  0  0  0  0  0  0  0  0  0
    9.7329    0.2862    4.3124 C   0  0  0  0  0  0  0  0  0  0  0  0
    6.7884    2.6784    4.0316 C   0  0  0  0  0  0  0  0  0  0  0  0
    8.3355    4.4965    3.1578 C   0  0  0  0  0  0  0  0  0  0  0  0
    6.6911    1.2848    4.6630 C   0  0  1  0  0  0  0  0  0  0  0  0
    7.0089   -1.2367    4.2148 C   0  0  0  0  0  0  0  0  0  0  0  0
    6.9984    5.1701    2.9388 C   0  0  0  0  0  0  0  0  0  0  0  0
    5.2469    0.9310    5.0316 C   0  0  1  0  0  0  0  0  0  0  0  0
    5.5831   -1.5039    4.7320 C   0  0  0  0  0  0  0  0  0  0  0  0
    6.0662    5.2569    3.9819 C   0  0  0  0  0  0  0  0  0  0  0  0
    6.6718    5.7159    1.6895 C   0  0  0  0  0  0  0  0  0  0  0  0
    5.1579   -0.4379    5.7356 C   0  0  2  0  0  0  0  0  0  0  0  0
    4.4369    1.8633    5.9267 C   0  0  0  0  0  0  0  0  0  0  0  0
    4.8363    5.8855    3.7813 C   0  0  0  0  0  0  0  0  0  0  0  0
    5.4413    6.3439    1.4912 C   0  0  0  0  0  0  0  0  0  0  0  0
    3.6860   -0.4001    6.1044 C   0  0  0  0  0  0  0  0  0  0  0  0
    5.9383   -0.5686    7.0566 C   0  0  0  0  0  0  0  0  0  0  0  0
    3.1876    1.0282    6.2451 C   0  0  0  0  0  0  0  0  0  0  0  0
    4.5247    6.4297    2.5370 C   0  0  0  0  0  0  0  0  0  0  0  0
    2.9896   -1.3886    6.2925 O   0  0  0  0  0  0  0  0  0  0  0  0
  1  2  2  0
  2  3  1  0
  2  4  1  0
  3  5  2  0
  4  6  1  0
  5  7  1  0
  5  8  1  0
  7  9  1  0
  7 10  1  1
  8 11  1  0
  8 12  1  0
  9 13  1  0
  9 14  1  1
 12 15  1  0
 13 16  1  0
 14 17  1  0
 15 18  4  0
 15 19  4  0
 16 20  1  0
 16 21  1  1
 18 22  4  0
 19 23  4  0
 20 24  1  0
 20 25  1  1
 21 26  1  0
 22 27  4  0
 24 28  2  0
  6  7  1  0
 13 11  1  6
 17 20  1  0
 23 27  4  0
 24 26  1  0
M  END
