
     RDKit          3D

 25 28  0  0  0  0  0  0  0  0999 V2000
   11.9782    4.0377    3.1497 O   0  0  0  0  0  0  0  0  0  0  0  0
   10.6439    3.7941    3.5511 C   0  0  2  0  0  0  0  0  0  0  0  0
   10.0727    2.4586    3.0350 C   0  0  2  0  0  0  0  0  0  0  0  0
    9.6923    4.8571    2.9698 C   0  0  0  0  0  0  0  0  0  0  0  0
    8.5702    2.7343    3.2395 C   0  0  1  0  0  0  0  0  0  0  0  0
   10.4497    1.2316    3.8736 C   0  0  0  0  0  0  0  0  0  0  0  0
   10.4956    2.2259    1.5621 C   0  0  0  0  0  0  0  0  0  0  0  0
    8.3792    4.1249    2.6394 C   0  0  0  0  0  0  0  0  0  0  0  0
    7.6890    1.5797    2.7510 C   0  0  1  0  0  0  0  0  0  0  0  0
    9.5848    0.0081    3.5158 C   0  0  0  0  0  0  0  0  0  0  0  0
    8.0591    0.2913    3.5636 C   0  0  2  0  0  0  0  0  0  0  0  0
    6.1914    1.9216    2.8685 C   0  0  0  0  0  0  0  0  0  0  0  0
    7.1521   -0.9287    3.1602 C   0  0  2  0  0  0  0  0  0  0  0  0
    5.2774    0.7370    2.4948 C   0  0  1  0  0  0  0  0  0  0  0  0
    5.6948   -0.4531    3.3656 C   0  0  0  0  0  0  0  0  0  0  0  0
    7.4445   -2.2036    4.0129 C   0  0  0  0  0  0  0  0  0  0  0  0
    7.3912   -1.3639    1.6920 C   0  0  0  0  0  0  0  0  0  0  0  0
    3.7814    1.1304    2.5791 C   0  0  0  0  0  0  0  0  0  0  0  0
    4.9036   -0.9822    4.3225 C   0  0  0  0  0  0  0  0  0  0  0  0
    6.8502   -2.1394    5.4112 C   0  0  0  0  0  0  0  0  0  0  0  0
    2.8512    0.1789    1.8140 C   0  0  0  0  0  0  0  0  0  0  0  0
    5.3354   -2.0147    5.3198 C   0  0  0  0  0  0  0  0  0  0  0  0
    1.8412    0.9588    0.9667 C   0  0  0  0  0  0  0  0  0  0  0  0
    2.1415    0.9093   -0.5330 C   0  0  0  0  0  0  0  0  0  0  0  0
    1.4817    2.0292   -1.3226 C   0  0  0  0  0  0  0  0  0  0  0  0
  2  1  1  6
  2  3  1  0
  2  4  1  0
  3  5  1  0
  3  6  1  0
  3  7  1  6
  4  8  1  0
  5  9  1  0
  6 10  1  0
  9 11  1  0
  9 12  1  1
 11 13  1  0
 12 14  1  0
 13 15  1  0
 13 16  1  0
 13 17  1  6
 14 18  1  1
 15 19  2  0
 16 20  1  0
 18 21  1  0
 19 22  1  0
 21 23  1  0
 23 24  1  0
 24 25  1  0
  5  8  1  6
 11 10  1  6
 14 15  1  0
 20 22  1  0
M  END
