
     RDKit          3D

 29 33  0  0  0  0  0  0  0  0999 V2000
    3.6403    6.4898    2.5083 Br  0  0  0  0  0  0  0  0  0  0  0  0
    4.6734    5.0520    3.1686 C   0  0  0  0  0  0  0  0  0  0  0  0
    5.9637    4.8475    2.6857 C   0  0  0  0  0  0  0  0  0  0  0  0
    4.1369    4.1981    4.1297 C   0  0  0  0  0  0  0  0  0  0  0  0
    6.7257    3.7831    3.1752 C   0  0  0  0  0  0  0  0  0  0  0  0
    4.9019    3.1346    4.6173 C   0  0  0  0  0  0  0  0  0  0  0  0
    6.2062    2.9300    4.1549 C   0  0  0  0  0  0  0  0  0  0  0  0
    7.2035    1.5744    4.7462 S   0  0  0  0  0  0  0  0  0  0  0  0
    6.4255    0.1488    3.8813 C   0  0  2  0  0  0  0  0  0  0  0  0
    7.3720   -0.9582    3.2908 C   0  0  1  0  0  0  0  0  0  0  0  0
    5.4075    0.7548    2.8821 C   0  0  0  0  0  0  0  0  0  0  0  0
    6.9915   -1.3558    1.8294 C   0  0  0  0  0  0  0  0  0  0  0  0
    8.9278   -0.9466    3.3696 C   0  0  0  0  0  0  0  0  0  0  0  0
    4.7904   -0.1779    1.8658 C   0  0  0  0  0  0  0  0  0  0  0  0
    5.4524   -1.5257    1.6418 C   0  0  1  0  0  0  0  0  0  0  0  0
    7.6501   -0.4219    0.7734 C   0  0  0  0  0  0  0  0  0  0  0  0
    9.6396   -0.0559    2.3341 C   0  0  1  0  0  0  0  0  0  0  0  0
    9.5917   -0.7130    4.7313 C   0  0  0  0  0  0  0  0  0  0  0  0
    3.7785    0.2673    1.0966 C   0  0  0  0  0  0  0  0  0  0  0  0
    5.1341   -2.0887    0.2643 C   0  0  0  0  0  0  0  0  0  0  0  0
    4.8667   -2.5522    2.6415 C   0  0  0  0  0  0  0  0  0  0  0  0
    8.6721    0.5707    1.3319 C   0  0  0  0  0  0  0  0  0  0  0  0
   10.3091    0.9869    3.2081 C   0  0  0  0  0  0  0  0  0  0  0  0
   10.7553   -0.8293    1.6126 C   0  0  0  0  0  0  0  0  0  0  0  0
   10.4414    0.5495    4.6407 C   0  0  0  0  0  0  0  0  0  0  0  0
    3.3068   -0.4975   -0.0794 C   0  0  0  0  0  0  0  0  0  0  0  0
    4.1382   -1.6401   -0.5130 C   0  0  0  0  0  0  0  0  0  0  0  0
   10.7628    2.0452    2.7866 O   0  0  0  0  0  0  0  0  0  0  0  0
    2.3047   -0.1648   -0.6980 O   0  0  0  0  0  0  0  0  0  0  0  0
  1  2  1  0
  2  3  4  0
  2  4  4  0
  3  5  4  0
  4  6  4  0
  5  7  4  0
  7  8  1  0
  9  8  1  6
 10  9  1  0
  9 11  1  0
 10 12  1  0
 10 13  1  6
 11 14  1  0
 12 15  1  0
 12 16  1  0
 13 17  1  0
 13 18  1  0
 14 19  2  0
 15 20  1  0
 15 21  1  1
 16 22  1  0
 17 23  1  0
 17 24  1  6
 18 25  1  0
 19 26  1  0
 20 27  2  0
 23 28  2  0
 26 29  2  0
  6  7  4  0
 14 15  1  0
 17 22  1  0
 23 25  1  0
 26 27  1  0
M  END
