
     RDKit          3D

 26 30  0  0  0  0  0  0  0  0999 V2000
    2.0612    4.9064    5.7460 O   0  0  0  0  0  0  0  0  0  0  0  0
    3.2536    4.8429    5.5011 C   0  0  0  0  0  0  0  0  0  0  0  0
    4.1371    3.9786    6.0628 O   0  0  0  0  0  0  0  0  0  0  0  0
    3.9570    5.7115    4.5213 C   0  0  0  0  0  0  0  0  0  0  0  0
    3.5335    2.7685    6.5320 C   0  0  0  0  0  0  0  0  0  0  0  0
    3.3555    6.8700    4.2195 C   0  0  0  0  0  0  0  0  0  0  0  0
    5.3265    5.3747    4.0080 C   0  0  0  0  0  0  0  0  0  0  0  0
    3.8485    7.8284    3.3775 O   0  0  0  0  0  0  0  0  0  0  0  0
    5.9371    6.5256    3.1683 C   0  0  2  0  0  0  0  0  0  0  0  0
    5.4275    4.0496    3.2440 C   0  0  0  0  0  0  0  0  0  0  0  0
    4.8660    7.3942    2.4651 C   0  0  0  0  0  0  0  0  0  0  0  0
    7.0307    6.0658    2.1957 C   0  0  0  0  0  0  0  0  0  0  0  0
    6.8973    3.7798    3.0658 C   0  0  0  0  0  0  0  0  0  0  0  0
    4.1668    6.7835    1.2466 C   0  0  0  0  0  0  0  0  0  0  0  0
    7.6821    4.8000    2.6331 N   0  0  0  0  0  0  0  0  0  0  0  0
    7.5385    2.5774    3.3706 C   0  0  0  0  0  0  0  0  0  0  0  0
    9.0197    4.6790    2.4994 C   0  0  0  0  0  0  0  0  0  0  0  0
    7.0354    1.3783    3.8329 N   0  0  0  0  0  0  0  0  0  0  0  0
    8.9151    2.4116    3.2494 C   0  0  0  0  0  0  0  0  0  0  0  0
    9.6789    3.4969    2.8039 C   0  0  0  0  0  0  0  0  0  0  0  0
    8.0393    0.4549    4.0006 C   0  0  0  0  0  0  0  0  0  0  0  0
    9.2335    1.0750    3.6425 C   0  0  0  0  0  0  0  0  0  0  0  0
    7.9761   -0.8719    4.4410 C   0  0  0  0  0  0  0  0  0  0  0  0
   10.4306    0.3352    3.7284 C   0  0  0  0  0  0  0  0  0  0  0  0
    9.1755   -1.5851    4.5169 C   0  0  0  0  0  0  0  0  0  0  0  0
   10.3862   -0.9931    4.1667 C   0  0  0  0  0  0  0  0  0  0  0  0
  1  2  2  0
  2  3  1  0
  2  4  1  0
  3  5  1  0
  4  6  2  0
  4  7  1  0
  6  8  1  0
  7  9  1  0
  7 10  1  0
  8 11  1  0
  9 12  1  6
 10 13  1  0
 11 14  1  0
 12 15  1  0
 13 16  4  0
 15 17  4  0
 16 18  4  0
 16 19  4  0
 17 20  4  0
 18 21  4  0
 19 22  4  0
 21 23  4  0
 22 24  4  0
 23 25  4  0
 24 26  4  0
  9 11  1  0
 13 15  4  0
 19 20  4  0
 21 22  4  0
 25 26  4  0
M  CHG  1  15   1
M  END
