
     RDKit          3D

 22 25  0  0  0  0  0  0  0  0999 V2000
    4.0845    4.9980    6.0772 S   0  0  0  0  0  0  0  0  0  0  0  0
    5.5634    5.3292    5.0627 C   0  0  0  0  0  0  0  0  0  0  0  0
    5.4669    5.1415    3.5088 C   0  0  1  0  0  0  0  0  0  0  0  0
    6.1381    6.2700    2.7085 C   0  0  0  0  0  0  0  0  0  0  0  0
    6.2120    3.8169    3.0859 C   0  0  0  0  0  0  0  0  0  0  0  0
    3.9768    5.0455    3.0621 C   0  0  0  0  0  0  0  0  0  0  0  0
    5.4576    7.3214    2.2156 C   0  0  0  0  0  0  0  0  0  0  0  0
    7.5946    6.1149    2.3215 C   0  0  0  0  0  0  0  0  0  0  0  0
    7.7253    3.8343    3.4968 C   0  0  2  0  0  0  0  0  0  0  0  0
    5.5455    2.4860    3.5175 C   0  0  0  0  0  0  0  0  0  0  0  0
    3.2116    6.3643    3.0377 C   0  0  0  0  0  0  0  0  0  0  0  0
    3.9957    7.4805    2.3954 C   0  0  0  0  0  0  0  0  0  0  0  0
    8.3965    5.1919    3.2307 C   0  0  0  0  0  0  0  0  0  0  0  0
    8.3854    2.6305    2.8154 C   0  0  2  0  0  0  0  0  0  0  0  0
    6.3048    1.2517    2.9823 C   0  0  0  0  0  0  0  0  0  0  0  0
    3.4593    8.5203    2.0181 O   0  0  0  0  0  0  0  0  0  0  0  0
    7.7868    1.3040    3.3501 C   0  0  1  0  0  0  0  0  0  0  0  0
    9.8919    2.4092    2.8969 C   0  0  0  0  0  0  0  0  0  0  0  0
    8.7096    0.3451    2.6209 C   0  0  0  0  0  0  0  0  0  0  0  0
    7.9817    1.0259    4.8543 C   0  0  0  0  0  0  0  0  0  0  0  0
   10.0569    0.9875    2.3350 C   0  0  0  0  0  0  0  0  0  0  0  0
    8.4237   -0.8067    2.3236 O   0  0  0  0  0  0  0  0  0  0  0  0
  1  2  1  0
  3  2  1  1
  3  4  1  0
  3  5  1  0
  3  6  1  0
  4  7  2  0
  4  8  1  0
  5  9  1  0
  5 10  1  0
  6 11  1  0
  7 12  1  0
  8 13  1  0
  9 14  1  0
 10 15  1  0
 12 16  2  0
 14 17  1  0
 14 18  1  1
 17 19  1  0
 17 20  1  1
 18 21  1  0
 19 22  2  0
  9 13  1  6
 11 12  1  0
 15 17  1  0
 19 21  1  0
M  END
