
     RDKit          3D

 22 25  0  0  0  0  0  0  0  0999 V2000
    8.9224    1.4197    1.2974 O   0  0  0  0  0  0  0  0  0  0  0  0
    8.8115    2.4963    1.8697 C   0  0  0  0  0  0  0  0  0  0  0  0
    8.3896    3.7099    1.1456 C   0  0  0  0  0  0  0  0  0  0  0  0
    9.0605    2.6238    3.3163 C   0  0  0  0  0  0  0  0  0  0  0  0
    8.3252    4.9096    1.7509 C   0  0  0  0  0  0  0  0  0  0  0  0
    9.0182    3.8188    3.9206 C   0  0  0  0  0  0  0  0  0  0  0  0
    7.7340    6.0470    1.0557 C   0  0  0  0  0  0  0  0  0  0  0  0
    8.7380    5.1439    3.2190 C   0  0  2  0  0  0  0  0  0  0  0  0
    6.8272    6.7811    1.7190 C   0  0  0  0  0  0  0  0  0  0  0  0
    8.1327    6.3428   -0.3616 C   0  0  0  0  0  0  0  0  0  0  0  0
    7.7154    6.1042    3.9858 C   0  0  0  0  0  0  0  0  0  0  0  0
   10.1168    5.8623    3.1870 C   0  0  0  0  0  0  0  0  0  0  0  0
    6.4518    6.4863    3.1454 C   0  0  2  0  0  0  0  0  0  0  0  0
    7.3218    5.6915    5.4331 C   0  0  0  0  0  0  0  0  0  0  0  0
    5.3987    5.3815    3.2732 C   0  0  1  0  0  0  0  0  0  0  0  0
    6.1570    4.6900    5.5317 C   0  0  0  0  0  0  0  0  0  0  0  0
    4.9508    5.1840    4.7354 C   0  0  2  0  0  0  0  0  0  0  0  0
    4.0929    5.4781    2.4913 C   0  0  0  0  0  0  0  0  0  0  0  0
    3.8393    4.1804    4.4857 C   0  0  0  0  0  0  0  0  0  0  0  0
    4.2911    6.4020    5.4096 C   0  0  0  0  0  0  0  0  0  0  0  0
    3.2611    4.3317    3.0876 C   0  0  0  0  0  0  0  0  0  0  0  0
    3.4346    3.3722    5.3105 O   0  0  0  0  0  0  0  0  0  0  0  0
  1  2  2  0
  2  3  1  0
  2  4  1  0
  3  5  2  0
  4  6  2  0
  5  7  1  0
  5  8  1  0
  7  9  2  0
  7 10  1  0
  8 11  1  0
  8 12  1  6
 13  9  1  6
 11 14  1  0
 13 15  1  0
 14 16  1  0
 15 17  1  0
 15 18  1  6
 17 19  1  0
 17 20  1  1
 18 21  1  0
 19 22  2  0
  6  8  1  0
 11 13  1  0
 16 17  1  0
 19 21  1  0
M  END
