
     RDKit          3D

 21 23  0  0  0  0  0  0  0  0999 V2000
    9.3992    7.3635    1.5144 Cl  0  0  0  0  0  0  0  0  0  0  0  0
    8.3066    6.1644    2.0863 C   0  0  0  0  0  0  0  0  0  0  0  0
    6.9940    6.1446    1.6209 C   0  0  0  0  0  0  0  0  0  0  0  0
    8.7419    5.2182    3.0124 C   0  0  0  0  0  0  0  0  0  0  0  0
    6.1092    5.1691    2.0859 C   0  0  0  0  0  0  0  0  0  0  0  0
    7.8570    4.2415    3.4770 C   0  0  0  0  0  0  0  0  0  0  0  0
    6.5338    4.2107    3.0168 C   0  0  0  0  0  0  0  0  0  0  0  0
    5.5976    3.1717    3.4908 C   0  0  0  0  0  0  0  0  0  0  0  0
    4.5016    3.4546    4.2257 C   0  0  0  0  0  0  0  0  0  0  0  0
    5.9419    1.7488    3.1070 C   0  0  0  0  0  0  0  0  0  0  0  0
    4.0626    4.7837    4.6685 C   0  0  0  0  0  0  0  0  0  0  0  0
    7.3462    1.4430    3.3241 N   0  0  0  0  0  0  0  0  0  0  0  0
    3.4099    5.6246    3.7595 C   0  0  0  0  0  0  0  0  0  0  0  0
    4.2558    5.2159    5.9852 C   0  0  0  0  0  0  0  0  0  0  0  0
    8.2247    1.5052    2.3060 N   0  0  0  0  0  0  0  0  0  0  0  0
    7.9528    1.0357    4.4763 C   0  0  0  0  0  0  0  0  0  0  0  0
    2.9728    6.8893    4.1586 C   0  0  0  0  0  0  0  0  0  0  0  0
    3.8175    6.4807    6.3831 C   0  0  0  0  0  0  0  0  0  0  0  0
    9.4134    1.1629    2.7859 N   0  0  0  0  0  0  0  0  0  0  0  0
    9.2673    0.8746    4.1133 C   0  0  0  0  0  0  0  0  0  0  0  0
    3.1785    7.3173    5.4694 C   0  0  0  0  0  0  0  0  0  0  0  0
  1  2  1  0
  2  3  4  0
  2  4  4  0
  3  5  4  0
  4  6  4  0
  5  7  4  0
  7  8  1  0
  8  9  2  0
  8 10  1  0
  9 11  1  0
 10 12  1  0
 11 13  4  0
 11 14  4  0
 12 15  4  0
 12 16  4  0
 13 17  4  0
 14 18  4  0
 15 19  4  0
 16 20  4  0
 17 21  4  0
  6  7  4  0
 18 21  4  0
 19 20  4  0
M  END
