
     RDKit          3D

 30 34  0  0  0  0  0  0  0  0999 V2000
    9.3621   -0.6867   -0.6320 O   0  0  0  0  0  0  0  0  0  0  0  0
    9.2026   -0.6351    0.5808 C   0  0  0  0  0  0  0  0  0  0  0  0
    8.6820    0.5791    1.2386 C   0  0  0  0  0  0  0  0  0  0  0  0
    9.5211   -1.7842    1.4476 C   0  0  0  0  0  0  0  0  0  0  0  0
    8.4994    0.6404    2.5697 C   0  0  0  0  0  0  0  0  0  0  0  0
    9.3363   -1.7188    2.7731 C   0  0  0  0  0  0  0  0  0  0  0  0
    8.7988   -0.5060    3.5293 C   0  0  2  0  0  0  0  0  0  0  0  0
    7.9263    1.8756    3.1969 C   0  0  0  0  0  0  0  0  0  0  0  0
    7.4490   -0.8506    4.2531 C   0  0  2  0  0  0  0  0  0  0  0  0
    9.9072   -0.0900    4.5211 C   0  0  0  0  0  0  0  0  0  0  0  0
    6.5953    1.5944    3.9273 C   0  0  0  0  0  0  0  0  0  0  0  0
    6.7394    0.4021    4.9306 C   0  0  1  0  0  0  0  0  0  0  0  0
    7.5744   -2.0426    5.2454 C   0  0  0  0  0  0  0  0  0  0  0  0
    6.1524    2.9273    4.5947 C   0  0  0  0  0  0  0  0  0  0  0  0
    5.3870   -0.1294    5.4791 C   0  0  0  0  0  0  0  0  0  0  0  0
    6.2490   -2.4291    5.9108 C   0  0  0  0  0  0  0  0  0  0  0  0
    6.8437    4.1721    4.0121 C   0  0  0  0  0  0  0  0  0  0  0  0
    5.5926   -1.2196    6.5605 C   0  0  2  0  0  0  0  0  0  0  0  0
    4.3253    0.7748    6.1019 C   0  0  0  0  0  0  0  0  0  0  0  0
    5.9446    5.0387    3.1683 C   0  0  0  0  0  0  0  0  0  0  0  0
    4.1479   -1.4298    6.9787 C   0  0  0  0  0  0  0  0  0  0  0  0
    6.3588   -0.7715    7.8182 C   0  0  0  0  0  0  0  0  0  0  0  0
    3.3001   -0.2149    6.6719 C   0  0  0  0  0  0  0  0  0  0  0  0
    6.4607    5.7577    2.0841 C   0  0  0  0  0  0  0  0  0  0  0  0
    4.5782    5.1402    3.4527 C   0  0  0  0  0  0  0  0  0  0  0  0
    3.7183   -2.4426    7.5150 O   0  0  0  0  0  0  0  0  0  0  0  0
    5.6193    6.5408    1.2875 C   0  0  0  0  0  0  0  0  0  0  0  0
    3.7432    5.9233    2.6502 C   0  0  0  0  0  0  0  0  0  0  0  0
    4.2455    6.5881    1.5303 C   0  0  0  0  0  0  0  0  0  0  0  0
    3.4281    7.4606    0.8029 N   0  0  0  0  0  0  0  0  0  0  0  0
  1  2  2  0
  2  3  1  0
  2  4  1  0
  3  5  2  0
  4  6  2  0
  5  7  1  0
  5  8  1  0
  7  9  1  0
  7 10  1  1
  8 11  1  0
 12  9  1  0
  9 13  1  1
 11 14  1  0
 12 15  1  0
 13 16  1  0
 14 17  1  0
 15 18  1  0
 15 19  1  0
 17 20  1  0
 18 21  1  0
 18 22  1  1
 19 23  1  0
 20 24  4  0
 20 25  4  0
 21 26  2  0
 24 27  4  0
 25 28  4  0
 27 29  4  0
 29 30  1  0
  6  7  1  0
 12 11  1  6
 16 18  1  0
 21 23  1  0
 28 29  4  0
M  END
