
     RDKit          3D

 23 27  0  0  0  0  0  0  0  0999 V2000
    3.2459    7.3002    1.2266 O   0  0  0  0  0  0  0  0  0  0  0  0
    3.8613    6.6081    2.0325 C   0  0  0  0  0  0  0  0  0  0  0  0
    5.3364    6.5432    1.9647 C   0  0  0  0  0  0  0  0  0  0  0  0
    3.1854    5.8876    3.1647 C   0  0  0  0  0  0  0  0  0  0  0  0
    6.0527    5.7545    2.7866 C   0  0  0  0  0  0  0  0  0  0  0  0
    3.9294    4.5916    3.4755 C   0  0  0  0  0  0  0  0  0  0  0  0
    5.4462    4.7694    3.8047 C   0  0  1  0  0  0  0  0  0  0  0  0
    7.5550    5.8517    2.7579 C   0  0  0  0  0  0  0  0  0  0  0  0
    6.2009    3.3511    3.7548 C   0  0  2  0  0  0  0  0  0  0  0  0
    5.6526    5.3283    5.2400 C   0  0  0  0  0  0  0  0  0  0  0  0
    8.1680    4.4931    2.5060 C   0  0  0  0  0  0  0  0  0  0  0  0
    7.7585    3.4454    3.5551 C   0  0  2  0  0  0  0  0  0  0  0  0
    5.6169    2.2376    2.8451 C   0  0  0  0  0  0  0  0  0  0  0  0
    4.9205    4.6230    6.2648 O   0  0  0  0  0  0  0  0  0  0  0  0
    4.6164    6.0087    6.1197 C   0  0  0  0  0  0  0  0  0  0  0  0
    8.3421    2.0927    3.1019 C   0  0  2  0  0  0  0  0  0  0  0  0
    6.2112    0.8327    3.1408 C   0  0  0  0  0  0  0  0  0  0  0  0
    7.6354    0.8730    3.7057 C   0  0  1  0  0  0  0  0  0  0  0  0
    9.8289    1.8310    3.3200 C   0  0  0  0  0  0  0  0  0  0  0  0
    8.5807   -0.2030    3.1894 C   0  0  0  0  0  0  0  0  0  0  0  0
    7.6735    0.7595    5.2399 C   0  0  0  0  0  0  0  0  0  0  0  0
    9.9713    0.3529    2.9324 C   0  0  0  0  0  0  0  0  0  0  0  0
    8.2767   -1.3773    3.0253 O   0  0  0  0  0  0  0  0  0  0  0  0
  1  2  2  0
  2  3  1  0
  2  4  1  0
  3  5  2  0
  4  6  1  0
  5  7  1  0
  5  8  1  0
  7  9  1  0
  7 10  1  1
  8 11  1  0
  9 12  1  0
  9 13  1  6
 10 14  1  0
 10 15  1  0
 12 16  1  0
 13 17  1  0
 16 18  1  0
 16 19  1  1
 18 20  1  0
 18 21  1  1
 19 22  1  0
 20 23  2  0
  7  6  1  0
 12 11  1  6
 14 15  1  0
 17 18  1  0
 20 22  1  0
M  END
