
     RDKit          3D

 29 32  0  0  0  0  0  0  0  0999 V2000
    7.5431   -0.8793   -0.3563 O   0  0  0  0  0  0  0  0  0  0  0  0
    7.5610   -0.8174    0.8696 C   0  0  0  0  0  0  0  0  0  0  0  0
    6.5214   -0.0399    1.5817 C   0  0  0  0  0  0  0  0  0  0  0  0
    8.5323   -1.5985    1.7104 C   0  0  0  0  0  0  0  0  0  0  0  0
    6.5603    0.1557    2.9159 C   0  0  0  0  0  0  0  0  0  0  0  0
    8.9408   -0.7487    2.8976 C   0  0  0  0  0  0  0  0  0  0  0  0
    7.7496   -0.2880    3.7977 C   0  0  2  0  0  0  0  0  0  0  0  0
    5.2739    0.6132    3.5942 C   0  0  0  0  0  0  0  0  0  0  0  0
    7.2098   -1.4300    4.7317 C   0  0  2  0  0  0  0  0  0  0  0  0
    8.3434    0.8758    4.6296 C   0  0  0  0  0  0  0  0  0  0  0  0
    4.8357   -0.4749    4.5982 C   0  0  0  0  0  0  0  0  0  0  0  0
    5.2350    2.0301    4.2066 C   0  0  0  0  0  0  0  0  0  0  0  0
    5.9497   -0.9545    5.5419 C   0  0  1  0  0  0  0  0  0  0  0  0
    8.2873   -2.0714    5.6508 C   0  0  0  0  0  0  0  0  0  0  0  0
    6.0809    3.0779    3.4666 C   0  0  0  0  0  0  0  0  0  0  0  0
    5.4765   -2.1192    6.4186 C   0  0  1  0  0  0  0  0  0  0  0  0
    7.7324   -3.1147    6.6372 C   0  0  0  0  0  0  0  0  0  0  0  0
    5.7115    4.5265    3.7871 C   0  0  0  0  0  0  0  0  0  0  0  0
    6.5585   -2.5501    7.4284 C   0  0  2  0  0  0  0  0  0  0  0  0
    4.2158   -1.9706    7.2644 C   0  0  0  0  0  0  0  0  0  0  0  0
    4.2348    4.8018    3.4901 C   0  0  0  0  0  0  0  0  0  0  0  0
    5.7352   -3.5479    8.2226 C   0  0  0  0  0  0  0  0  0  0  0  0
    7.0202   -1.4699    8.4239 C   0  0  0  0  0  0  0  0  0  0  0  0
    4.2535   -3.2203    8.1560 C   0  0  0  0  0  0  0  0  0  0  0  0
    3.9579    6.2537    3.0873 C   0  0  0  0  0  0  0  0  0  0  0  0
    6.2001   -4.4835    8.8600 O   0  0  0  0  0  0  0  0  0  0  0  0
    4.4393    6.5980    1.6760 C   0  0  0  0  0  0  0  0  0  0  0  0
    3.2630    6.7426    0.7095 C   0  0  0  0  0  0  0  0  0  0  0  0
    3.6485    7.5503   -0.5196 C   0  0  0  0  0  0  0  0  0  0  0  0
  1  2  2  0
  2  3  1  0
  2  4  1  0
  3  5  2  0
  4  6  1  0
  5  7  1  0
  5  8  1  0
  7  9  1  0
  7 10  1  1
  8 11  1  0
  8 12  1  0
  9 13  1  0
  9 14  1  1
 12 15  1  0
 13 16  1  0
 14 17  1  0
 15 18  1  0
 16 19  1  0
 16 20  1  1
 18 21  1  0
 19 22  1  0
 19 23  1  1
 20 24  1  0
 21 25  1  0
 22 26  2  0
 25 27  1  0
 27 28  1  0
 28 29  1  0
  6  7  1  0
 13 11  1  6
 17 19  1  0
 22 24  1  0
M  END
