
     RDKit          3D

 23 27  0  0  0  0  0  0  0  0999 V2000
    3.5289    8.2688    1.7073 O   0  0  0  0  0  0  0  0  0  0  0  0
    4.0558    7.3320    2.3035 C   0  0  0  0  0  0  0  0  0  0  0  0
    5.5328    7.2409    2.3401 C   0  0  0  0  0  0  0  0  0  0  0  0
    3.2569    6.3141    3.0705 C   0  0  0  0  0  0  0  0  0  0  0  0
    6.1732    6.2277    2.9484 C   0  0  0  0  0  0  0  0  0  0  0  0
    3.9733    4.9717    3.1054 C   0  0  0  0  0  0  0  0  0  0  0  0
    5.4604    5.0248    3.5912 C   0  0  1  0  0  0  0  0  0  0  0  0
    7.6801    6.2425    3.0410 C   0  0  0  0  0  0  0  0  0  0  0  0
    6.1609    3.7008    3.0502 C   0  0  0  0  0  0  0  0  0  0  0  0
    5.5765    5.0709    5.1299 C   0  0  2  0  0  0  0  0  0  0  0  0
    8.2905    4.9633    2.4829 C   0  0  0  0  0  0  0  0  0  0  0  0
    7.7181    3.7277    3.1881 C   0  0  2  0  0  0  0  0  0  0  0  0
    5.5413    2.3924    3.6185 C   0  0  0  0  0  0  0  0  0  0  0  0
    4.5790    4.4357    5.9940 N   0  0  0  0  0  0  0  0  0  0  0  0
    4.6336    5.8884    5.9922 C   0  0  0  0  0  0  0  0  0  0  0  0
    8.2852    2.4296    2.6058 C   0  0  2  0  0  0  0  0  0  0  0  0
    6.2367    1.1122    3.1202 C   0  0  0  0  0  0  0  0  0  0  0  0
    7.7547    1.1756    3.3279 C   0  0  1  0  0  0  0  0  0  0  0  0
    9.7972    2.2208    2.5931 C   0  0  0  0  0  0  0  0  0  0  0  0
    8.5525    0.0947    2.5728 C   0  0  1  0  0  0  0  0  0  0  0  0
    8.0715    1.1192    4.8439 C   0  0  0  0  0  0  0  0  0  0  0  0
    9.9631    0.6987    2.4362 C   0  0  0  0  0  0  0  0  0  0  0  0
    8.5992   -1.1497    3.2439 O   0  0  0  0  0  0  0  0  0  0  0  0
  1  2  2  0
  2  3  1  0
  2  4  1  0
  3  5  2  0
  4  6  1  0
  5  7  1  0
  5  8  1  0
  7  9  1  0
  7 10  1  0
  8 11  1  0
  9 12  1  0
  9 13  1  0
 10 14  1  0
 10 15  1  1
 12 16  1  0
 13 17  1  0
 16 18  1  0
 16 19  1  1
 18 20  1  0
 18 21  1  1
 19 22  1  0
 20 23  1  1
  7  6  1  1
 12 11  1  6
 14 15  1  0
 17 18  1  0
 20 22  1  0
M  END
