
     RDKit          3D

 27 31  0  0  0  0  0  0  0  0999 V2000
   10.4574   -0.3559    2.1750 O   0  0  0  0  0  0  0  0  0  0  0  0
    9.9723    0.7724    2.2220 C   0  0  0  0  0  0  0  0  0  0  0  0
    8.7553    1.0028    3.0316 C   0  0  0  0  0  0  0  0  0  0  0  0
   10.6135    1.9468    1.5307 C   0  0  0  0  0  0  0  0  0  0  0  0
    8.2011    2.2218    3.1474 C   0  0  0  0  0  0  0  0  0  0  0  0
    9.5923    3.0340    1.2189 C   0  0  0  0  0  0  0  0  0  0  0  0
    7.0248    2.3876    3.9844 C   0  0  0  0  0  0  0  0  0  0  0  0
    8.7495    3.4701    2.4506 C   0  0  1  0  0  0  0  0  0  0  0  0
    6.2837    3.5111    4.0327 C   0  0  0  0  0  0  0  0  0  0  0  0
    7.5336    4.3419    1.9791 C   0  0  1  0  0  0  0  0  0  0  0  0
    9.6576    4.2405    3.4375 C   0  0  0  0  0  0  0  0  0  0  0  0
    5.2662    3.5759    5.0984 C   0  0  0  0  0  0  0  0  0  0  0  0
    6.5676    4.7317    3.1679 C   0  0  1  0  0  0  0  0  0  0  0  0
    7.9259    5.5742    1.1242 C   0  0  0  0  0  0  0  0  0  0  0  0
    5.0698    4.7643    5.8146 C   0  0  0  0  0  0  0  0  0  0  0  0
    4.5061    2.4459    5.4346 C   0  0  0  0  0  0  0  0  0  0  0  0
    5.3501    5.4283    2.5068 C   0  0  0  0  0  0  0  0  0  0  0  0
    6.7091    6.3666    0.6265 C   0  0  0  0  0  0  0  0  0  0  0  0
    4.1178    4.8268    6.8346 C   0  0  0  0  0  0  0  0  0  0  0  0
    3.5544    2.5105    6.4543 C   0  0  0  0  0  0  0  0  0  0  0  0
    5.7841    6.7304    1.7811 C   0  0  1  0  0  0  0  0  0  0  0  0
    4.1228    5.8760    3.3019 C   0  0  0  0  0  0  0  0  0  0  0  0
    3.3597    3.7011    7.1520 C   0  0  0  0  0  0  0  0  0  0  0  0
    4.4169    7.2477    1.3758 C   0  0  0  0  0  0  0  0  0  0  0  0
    6.4132    7.8181    2.6735 C   0  0  0  0  0  0  0  0  0  0  0  0
    3.3355    6.7319    2.2993 C   0  0  0  0  0  0  0  0  0  0  0  0
    4.2099    8.0072    0.4386 O   0  0  0  0  0  0  0  0  0  0  0  0
  1  2  2  0
  2  3  1  0
  2  4  1  0
  3  5  2  0
  4  6  1  0
  5  7  1  0
  5  8  1  0
  7  9  2  0
  8 10  1  0
  8 11  1  1
  9 12  1  0
 13  9  1  0
 10 14  1  1
 12 15  4  0
 12 16  4  0
 13 17  1  6
 14 18  1  0
 15 19  4  0
 16 20  4  0
 17 21  1  0
 17 22  1  0
 19 23  4  0
 21 24  1  0
 21 25  1  1
 22 26  1  0
 24 27  2  0
  6  8  1  0
 10 13  1  0
 18 21  1  0
 20 23  4  0
 24 26  1  0
M  END
