
     RDKit          3D

 25 27  0  0  0  0  0  0  0  0999 V2000
    7.1480   -1.7355    0.2781 Br  0  0  0  0  0  0  0  0  0  0  0  0
    8.2665   -0.3551    0.9237 C   0  0  0  0  0  0  0  0  0  0  0  0
    8.0220    0.2035    2.1785 C   0  0  0  0  0  0  0  0  0  0  0  0
    9.3270    0.0960    0.1415 C   0  0  0  0  0  0  0  0  0  0  0  0
    8.8416    1.2356    2.6640 C   0  0  0  0  0  0  0  0  0  0  0  0
   10.1524    1.1129    0.6187 C   0  0  0  0  0  0  0  0  0  0  0  0
    9.9145    1.6772    1.8735 C   0  0  0  0  0  0  0  0  0  0  0  0
    8.5879    1.8515    4.0187 C   0  0  0  0  0  0  0  0  0  0  0  0
    7.1863    2.1869    4.2190 N   0  0  0  0  0  0  0  0  0  0  0  0
    6.3776    1.3038    4.8309 N   0  0  0  0  0  0  0  0  0  0  0  0
    6.5198    3.3497    3.9057 C   0  0  0  0  0  0  0  0  0  0  0  0
    5.1749    1.8499    4.9099 N   0  0  0  0  0  0  0  0  0  0  0  0
    7.1307    4.4932    3.2491 C   0  0  0  0  0  0  0  0  0  0  0  0
    5.2233    3.1070    4.3485 C   0  0  0  0  0  0  0  0  0  0  0  0
    6.5140    5.0811    2.1384 C   0  0  0  0  0  0  0  0  0  0  0  0
    8.3413    5.0125    3.7238 C   0  0  0  0  0  0  0  0  0  0  0  0
    4.0427    3.9610    4.2909 C   0  0  0  0  0  0  0  0  0  0  0  0
    7.0990    6.1855    1.5142 C   0  0  0  0  0  0  0  0  0  0  0  0
    8.9248    6.1178    3.1004 C   0  0  0  0  0  0  0  0  0  0  0  0
    3.7143    4.5937    3.2933 O   0  0  0  0  0  0  0  0  0  0  0  0
    3.3372    3.9781    5.4618 O   0  0  0  0  0  0  0  0  0  0  0  0
    8.3005    6.6999    1.9991 C   0  0  0  0  0  0  0  0  0  0  0  0
    3.4592    5.1644    6.2580 C   0  0  0  0  0  0  0  0  0  0  0  0
    9.0160    8.0638    1.2338 Cl  0  0  0  0  0  0  0  0  0  0  0  0
    2.7404    6.3185    5.5853 C   0  0  0  0  0  0  0  0  0  0  0  0
  1  2  1  0
  2  3  4  0
  2  4  4  0
  3  5  4  0
  4  6  4  0
  5  7  4  0
  5  8  1  0
  8  9  1  0
  9 10  4  0
  9 11  4  0
 10 12  4  0
 11 13  1  0
 11 14  4  0
 13 15  4  0
 13 16  4  0
 14 17  1  0
 15 18  4  0
 16 19  4  0
 17 20  2  0
 17 21  1  0
 18 22  4  0
 21 23  1  0
 22 24  1  0
 23 25  1  0
  6  7  4  0
 12 14  4  0
 19 22  4  0
M  END
