
     RDKit          3D

 41 44  0  0  0  0  0  0  0  0999 V2000
    7.9497    3.1295    3.0710 Cl  0  0  0  0  0  0  0  0  0  0  0  0
    6.9110    4.5086    3.0705 C   0  0  0  0  0  0  0  0  0  0  0  0
    5.6074    4.5155    3.5720 C   0  0  0  0  0  0  0  0  0  0  0  0
    7.4526    5.6953    2.5613 C   0  0  0  0  0  0  0  0  0  0  0  0
    4.8548    3.0611    4.2436 S   0  0  0  0  0  0  0  0  0  0  0  0
    4.8517    5.6989    3.5483 C   0  0  0  0  0  0  0  0  0  0  0  0
    6.7032    6.8728    2.5464 C   0  0  0  0  0  0  0  0  0  0  0  0
    3.8448    3.4636    5.1998 O   0  0  0  0  0  0  0  0  0  0  0  0
    4.5262    2.1671    3.1572 O   0  0  0  0  0  0  0  0  0  0  0  0
    6.1137    2.3608    5.1062 N   0  0  0  0  0  0  0  0  0  0  0  0
    5.4019    6.8742    3.0397 C   0  0  0  0  0  0  0  0  0  0  0  0
    6.5009    0.9773    4.7649 C   0  0  0  0  0  0  0  0  0  0  0  0
    5.3647   -0.0765    4.9666 C   0  0  2  0  0  0  0  0  0  0  0  0
    5.5677   -1.0353    6.0707 N   0  0  0  0  0  0  0  0  0  0  0  0
    4.8623   -0.6625    3.6425 C   0  0  0  0  0  0  0  0  0  0  0  0
    5.8150   -0.5100    7.4119 C   0  0  0  0  0  0  0  0  0  0  0  0
    6.3681   -2.2180    5.7432 C   0  0  0  0  0  0  0  0  0  0  0  0
    5.6410   -0.6959    2.4762 C   0  0  0  0  0  0  0  0  0  0  0  0
    3.5621   -1.1944    3.5788 C   0  0  0  0  0  0  0  0  0  0  0  0
    6.7639   -1.3759    8.2743 C   0  0  0  0  0  0  0  0  0  0  0  0
    7.8286   -2.2155    6.2640 C   0  0  0  0  0  0  0  0  0  0  0  0
    5.1486   -1.2551    1.2923 C   0  0  0  0  0  0  0  0  0  0  0  0
    3.0656   -1.7502    2.3951 C   0  0  0  0  0  0  0  0  0  0  0  0
    8.0497   -1.5874    7.5855 N   0  0  0  0  0  0  0  0  0  0  0  0
    3.8532   -1.7841    1.2375 C   0  0  0  0  0  0  0  0  0  0  0  0
    9.0036   -2.3335    8.4316 C   0  0  0  0  0  0  0  0  0  0  0  0
    3.3389   -2.4187   -0.0305 C   0  0  0  0  0  0  0  0  0  0  0  0
    8.5688   -3.7796    8.7844 C   0  0  0  0  0  0  0  0  0  0  0  0
    3.9084   -1.8812   -1.1455 F   0  0  0  0  0  0  0  0  0  0  0  0
    1.9933   -2.2768   -0.1921 F   0  0  0  0  0  0  0  0  0  0  0  0
    3.5801   -3.7587   -0.0980 F   0  0  0  0  0  0  0  0  0  0  0  0
    8.8980   -4.0521   10.1536 O   0  0  0  0  0  0  0  0  0  0  0  0
    9.1127   -4.8902    7.8722 C   0  0  0  0  0  0  0  0  0  0  0  0
   10.3197   -4.4795    7.2245 O   0  0  0  0  0  0  0  0  0  0  0  0
   10.3428   -4.8060    5.8980 C   0  0  0  0  0  0  0  0  0  0  0  0
   10.3854   -6.1643    5.5770 C   0  0  0  0  0  0  0  0  0  0  0  0
   10.4105   -3.8350    4.8957 C   0  0  0  0  0  0  0  0  0  0  0  0
   10.4569   -6.5588    4.2406 C   0  0  0  0  0  0  0  0  0  0  0  0
   10.4863   -4.2314    3.5591 C   0  0  0  0  0  0  0  0  0  0  0  0
   10.5062   -5.5879    3.2440 C   0  0  0  0  0  0  0  0  0  0  0  0
   10.5743   -5.9637    1.9604 F   0  0  0  0  0  0  0  0  0  0  0  0
  1  2  1  0
  2  3  4  0
  2  4  4  0
  3  5  1  0
  3  6  4  0
  4  7  4  0
  5  8  2  0
  5  9  2  0
  5 10  1  0
  6 11  4  0
 10 12  1  0
 13 12  1  6
 13 14  1  0
 13 15  1  0
 14 16  1  0
 14 17  1  0
 15 18  4  0
 15 19  4  0
 16 20  1  0
 17 21  1  0
 18 22  4  0
 19 23  4  0
 20 24  1  0
 22 25  4  0
 24 26  1  0
 25 27  1  0
 26 28  1  0
 27 29  1  0
 27 30  1  0
 27 31  1  0
 28 32  1  0
 28 33  1  0
 33 34  1  0
 34 35  1  0
 35 36  4  0
 35 37  4  0
 36 38  4  0
 37 39  4  0
 38 40  4  0
 40 41  1  0
  7 11  4  0
 21 24  1  0
 23 25  4  0
 39 40  4  0
M  END
