
     RDKit          3D

 14 15  0  0  0  0  0  0  0  0999 V2000
    5.6423    5.8290    2.3964 S   0  0  0  0  0  0  0  0  0  0  0  0
    7.2642    5.3698    2.0718 C   0  0  0  0  0  0  0  0  0  0  0  0
    5.7996    7.3061    1.5447 C   0  0  0  0  0  0  0  0  0  0  0  0
    7.7890    4.0867    2.5535 C   0  0  0  0  0  0  0  0  0  0  0  0
    7.9054    6.3365    1.3184 C   0  0  0  0  0  0  0  0  0  0  0  0
    7.0681    7.4508    1.0219 C   0  0  0  0  0  0  0  0  0  0  0  0
    4.6408    8.2564    1.4508 C   0  0  0  0  0  0  0  0  0  0  0  0
    7.1599    3.3425    3.5513 C   0  0  0  0  0  0  0  0  0  0  0  0
    8.9761    3.5580    2.0340 C   0  0  0  0  0  0  0  0  0  0  0  0
    3.3426    7.5799    1.4952 N   0  0  0  0  0  0  0  0  0  0  0  0
    7.6156    2.1590    4.0352 N   0  0  0  0  0  0  0  0  0  0  0  0
    9.4695    2.3431    2.5084 C   0  0  0  0  0  0  0  0  0  0  0  0
    3.0558    6.8289    0.2820 C   0  0  0  0  0  0  0  0  0  0  0  0
    8.7599    1.6873    3.4995 C   0  0  0  0  0  0  0  0  0  0  0  0
  1  2  4  0
  1  3  4  0
  2  4  1  0
  2  5  4  0
  3  6  4  0
  3  7  1  0
  4  8  4  0
  4  9  4  0
  7 10  1  0
  8 11  4  0
  9 12  4  0
 10 13  1  0
 11 14  4  0
  5  6  4  0
 12 14  4  0
M  END
