
     RDKit          3D

 10 10  0  0  0  0  0  0  0  0999 V2000
    7.7393    5.1932    3.9412 N   0  0  0  0  0  0  0  0  0  0  0  0
    6.6106    5.6129    3.3190 C   0  0  0  0  0  0  0  0  0  0  0  0
    8.8247    5.0049    3.1593 C   0  0  0  0  0  0  0  0  0  0  0  0
    6.5197    5.8527    1.9541 C   0  0  0  0  0  0  0  0  0  0  0  0
    8.8336    5.2167    1.7890 C   0  0  0  0  0  0  0  0  0  0  0  0
    5.2976    6.2959    1.3622 C   0  0  0  0  0  0  0  0  0  0  0  0
    7.6581    5.6486    1.1781 C   0  0  0  0  0  0  0  0  0  0  0  0
    4.2704    6.6698    0.8634 C   0  0  0  0  0  0  0  0  0  0  0  0
    3.0185    7.1237    0.2543 C   0  0  0  0  0  0  0  0  0  0  0  0
    2.8885    8.5670    0.3900 N   0  0  0  0  0  0  0  0  0  0  0  0
  1  2  4  0
  1  3  4  0
  2  4  4  0
  3  5  4  0
  4  6  1  0
  4  7  4  0
  6  8  3  0
  8  9  1  0
  9 10  1  0
  5  7  4  0
M  END
