
     RDKit          3D

 28 32  0  0  0  0  0  0  0  0999 V2000
    5.5959    8.1533    2.7577 S   0  0  0  0  0  0  0  0  0  0  0  0
    5.0902    6.5957    3.3688 C   0  0  0  0  0  0  0  0  0  0  0  0
    5.0414    7.9738    1.0685 C   0  0  0  0  0  0  0  0  0  0  0  0
    5.9293    5.5613    3.6310 C   0  0  0  0  0  0  0  0  0  0  0  0
    3.6079    6.4765    3.6242 C   0  0  0  0  0  0  0  0  0  0  0  0
    3.7283    8.2888    0.7036 C   0  0  0  0  0  0  0  0  0  0  0  0
    5.9397    7.5475    0.0836 C   0  0  0  0  0  0  0  0  0  0  0  0
    7.3821    5.6585    3.4447 C   0  0  0  0  0  0  0  0  0  0  0  0
    5.4282    4.1841    4.1362 C   0  0  2  0  0  0  0  0  0  0  0  0
    2.8227    7.4021    3.4061 O   0  0  0  0  0  0  0  0  0  0  0  0
    3.0827    5.1929    4.2077 C   0  0  0  0  0  0  0  0  0  0  0  0
    3.3168    8.1615   -0.6255 C   0  0  0  0  0  0  0  0  0  0  0  0
    5.5259    7.4196   -1.2448 C   0  0  0  0  0  0  0  0  0  0  0  0
    8.2205    4.6131    3.4731 C   0  0  0  0  0  0  0  0  0  0  0  0
    6.2484    3.0531    3.4156 C   0  0  1  0  0  0  0  0  0  0  0  0
    3.9301    4.0102    3.7865 C   0  0  0  0  0  0  0  0  0  0  0  0
    5.5963    4.1185    5.6752 C   0  0  0  0  0  0  0  0  0  0  0  0
    4.2142    7.7251   -1.5980 C   0  0  0  0  0  0  0  0  0  0  0  0
    7.7784    3.1950    3.6898 C   0  0  0  0  0  0  0  0  0  0  0  0
    5.7684    1.6002    3.6683 C   0  0  0  0  0  0  0  0  0  0  0  0
    8.4939    2.1762    2.7971 C   0  0  2  0  0  0  0  0  0  0  0  0
    6.6043    0.5561    2.9013 C   0  0  0  0  0  0  0  0  0  0  0  0
    8.0958    0.7300    3.1762 C   0  0  1  0  0  0  0  0  0  0  0  0
   10.0161    2.1290    2.7311 C   0  0  0  0  0  0  0  0  0  0  0  0
    9.0497   -0.0028    2.2514 C   0  0  0  0  0  0  0  0  0  0  0  0
    8.4458    0.2850    4.6090 C   0  0  0  0  0  0  0  0  0  0  0  0
   10.2789    0.8359    1.9449 C   0  0  0  0  0  0  0  0  0  0  0  0
    8.8701   -1.1339    1.8202 O   0  0  0  0  0  0  0  0  0  0  0  0
  1  2  1  0
  1  3  1  0
  2  4  2  0
  2  5  1  0
  3  6  4  0
  3  7  4  0
  4  8  1  0
  4  9  1  0
  5 10  2  0
  5 11  1  0
  6 12  4  0
  7 13  4  0
  8 14  2  0
  9 15  1  0
  9 16  1  0
  9 17  1  1
 12 18  4  0
 19 14  1  0
 15 20  1  1
 19 21  1  0
 20 22  1  0
 21 23  1  0
 21 24  1  1
 23 25  1  0
 23 26  1  1
 24 27  1  0
 25 28  2  0
 11 16  1  0
 13 18  4  0
 15 19  1  0
 22 23  1  0
 25 27  1  0
M  END
