
     RDKit          2D

 23 27  0  0  0  0  0  0  0  0999 V2000
    9.4003    1.9568    2.0307 O   0  0  0  0  0  0  0  0  0  0  0  0
    8.7887    2.6170    2.4041 C   0  0  0  0  0  0  0  0  0  0  0  0
    8.6693    3.4550    2.1683 C   0  0  0  0  0  0  0  0  0  0  0  0
    8.1076    1.8064    3.5322 C   0  0  0  0  0  0  0  0  0  0  0  0
    8.0236    3.8626    2.5497 C   0  0  0  0  0  0  0  0  0  0  0  0
    7.9612    1.6709    3.6559 C   0  0  0  0  0  0  0  0  0  0  0  0
    7.1397    2.4120    3.8375 C   0  0  0  0  0  0  0  0  0  0  0  0
    7.3895    3.1305    3.3354 C   0  0  0  0  0  0  0  0  0  0  0  0
    8.1070    4.8307    2.1107 C   0  0  0  0  0  0  0  0  0  0  0  0
    7.5950    1.8287    3.8552 O   0  0  0  0  0  0  0  0  0  0  0  0
    6.5112    3.9057    3.4357 C   0  0  0  0  0  0  0  0  0  0  0  0
    7.1583    2.7041    3.8827 C   0  0  0  0  0  0  0  0  0  0  0  0
    7.4300    5.4147    2.2601 C   0  0  0  0  0  0  0  0  0  0  0  0
    6.4800    5.0472    2.7495 C   0  0  0  0  0  0  0  0  0  0  0  0
    5.3359    3.6743    4.0241 C   0  0  0  0  0  0  0  0  0  0  0  0
    5.8709    5.4660    2.4301 C   0  0  0  0  0  0  0  0  0  0  0  0
    4.9235    4.1212    3.8032 C   0  0  0  0  0  0  0  0  0  0  0  0
    4.8331    5.0914    3.1810 C   0  0  0  0  0  0  0  0  0  0  0  0
    5.9036    6.3318    1.6957 C   0  0  0  0  0  0  0  0  0  0  0  0
    4.2021    5.7068    2.6706 C   0  0  0  0  0  0  0  0  0  0  0  0
    4.4446    5.6593    4.0418 C   0  0  0  0  0  0  0  0  0  0  0  0
    4.8794    6.5235    1.8167 C   0  0  0  0  0  0  0  0  0  0  0  0
    3.3519    5.5192    2.7981 O   0  0  0  0  0  0  0  0  0  0  0  0
  1  2  2  0
  2  3  1  0
  2  4  1  0
  3  5  2  0
  4  6  1  1
  4  7  1  0
  5  8  1  0
  5  9  1  0
  6 10  1  0
  8 11  1  0
  8 12  1  1
  9 13  1  0
 11 14  1  0
 11 15  1  1
 14 16  1  0
 15 17  1  0
 16 18  1  0
 16 19  1  1
 18 20  1  0
 18 21  1  1
 19 22  1  0
 20 23  2  0
  7  8  1  0
 10 12  1  0
 14 13  1  6
 17 18  1  0
 20 22  1  0
M  END
