
     RDKit          3D

 23 26  0  0  0  0  0  0  0  0999 V2000
    3.2124    8.2270    2.8984 O   0  0  0  0  0  0  0  0  0  0  0  0
    3.7955    7.1586    3.0708 C   0  0  0  0  0  0  0  0  0  0  0  0
    5.2219    7.0429    2.6877 C   0  0  0  0  0  0  0  0  0  0  0  0
    3.1055    5.9669    3.6817 C   0  0  0  0  0  0  0  0  0  0  0  0
    5.9722    5.9615    2.9835 C   0  0  0  0  0  0  0  0  0  0  0  0
    3.8641    4.6695    3.4212 C   0  0  0  0  0  0  0  0  0  0  0  0
    5.3802    4.7613    3.7444 C   0  0  1  0  0  0  0  0  0  0  0  0
    7.4051    5.8213    2.4562 C   0  0  0  0  0  0  0  0  0  0  0  0
    6.1182    3.4707    3.2520 C   0  0  1  0  0  0  0  0  0  0  0  0
    5.5540    4.9760    5.2667 C   0  0  0  0  0  0  0  0  0  0  0  0
    8.1302    7.1467    2.3401 C   0  0  0  0  0  0  0  0  0  0  0  0
    8.2816    4.8744    3.2943 C   0  0  0  0  0  0  0  0  0  0  0  0
    7.6375    3.5135    3.6135 C   0  0  2  0  0  0  0  0  0  0  0  0
    5.4817    2.1220    3.6765 C   0  0  0  0  0  0  0  0  0  0  0  0
    8.6322    7.6373    1.1985 C   0  0  0  0  0  0  0  0  0  0  0  0
    8.3047    2.3114    2.9356 C   0  0  2  0  0  0  0  0  0  0  0  0
    6.2545    0.9021    3.1325 C   0  0  0  0  0  0  0  0  0  0  0  0
    7.7365    0.9808    3.4887 C   0  0  1  0  0  0  0  0  0  0  0  0
    9.8163    2.1152    2.9996 C   0  0  0  0  0  0  0  0  0  0  0  0
    8.6669    0.0296    2.7591 C   0  0  0  0  0  0  0  0  0  0  0  0
    7.9508    0.7225    4.9934 C   0  0  0  0  0  0  0  0  0  0  0  0
    9.9985    0.6917    2.4485 C   0  0  0  0  0  0  0  0  0  0  0  0
    8.3980   -1.1306    2.4789 O   0  0  0  0  0  0  0  0  0  0  0  0
  1  2  2  0
  2  3  1  0
  2  4  1  0
  3  5  2  0
  4  6  1  0
  5  7  1  0
  5  8  1  0
  7  9  1  0
  7 10  1  1
  8 11  1  0
  8 12  1  0
  9 13  1  0
  9 14  1  1
 11 15  2  0
 13 16  1  0
 14 17  1  0
 16 18  1  0
 16 19  1  1
 18 20  1  0
 18 21  1  1
 19 22  1  0
 20 23  2  0
  6  7  1  0
 13 12  1  6
 17 18  1  0
 20 22  1  0
M  END
