
     RDKit          3D

 25 27  0  0  0  0  0  0  0  0999 V2000
    2.1818    5.4949    5.4615 F   0  0  0  0  0  0  0  0  0  0  0  0
    3.3630    5.2599    4.8755 C   0  0  0  0  0  0  0  0  0  0  0  0
    4.4090    4.7414    5.6282 C   0  0  0  0  0  0  0  0  0  0  0  0
    3.5254    5.5402    3.5253 C   0  0  0  0  0  0  0  0  0  0  0  0
    5.6416    4.4967    5.0201 C   0  0  0  0  0  0  0  0  0  0  0  0
    4.7560    5.2950    2.9148 C   0  0  0  0  0  0  0  0  0  0  0  0
    5.8289    4.7658    3.6528 C   0  0  0  0  0  0  0  0  0  0  0  0
    7.1867    4.5062    3.0128 C   0  0  1  0  0  0  0  0  0  0  0  0
    8.2618    5.1076    3.7451 O   0  0  0  0  0  0  0  0  0  0  0  0
    7.4702    2.9886    2.8026 C   0  0  2  0  0  0  0  0  0  0  0  0
    8.6241    6.3910    3.2486 C   0  0  0  0  0  0  0  0  0  0  0  0
    6.6168    2.0487    3.6543 C   0  0  0  0  0  0  0  0  0  0  0  0
    8.9714    2.7074    3.0096 C   0  0  0  0  0  0  0  0  0  0  0  0
    8.3518    6.4786    1.8542 O   0  0  0  0  0  0  0  0  0  0  0  0
    5.3274    1.7029    3.2192 C   0  0  0  0  0  0  0  0  0  0  0  0
    7.0856    1.5002    4.8587 C   0  0  0  0  0  0  0  0  0  0  0  0
    9.4097    1.5211    2.3032 N   0  0  0  0  0  0  0  0  0  0  0  0
    7.4396    7.5274    1.5604 C   0  0  0  0  0  0  0  0  0  0  0  0
    4.5294    0.8378    3.9696 C   0  0  0  0  0  0  0  0  0  0  0  0
    6.2855    0.6353    5.6077 C   0  0  0  0  0  0  0  0  0  0  0  0
    9.2445    0.3074    2.8587 N   0  0  0  0  0  0  0  0  0  0  0  0
    9.9916    1.4323    1.0760 C   0  0  0  0  0  0  0  0  0  0  0  0
    5.0081    0.3044    5.1633 C   0  0  0  0  0  0  0  0  0  0  0  0
    9.7275   -0.5865    2.0058 N   0  0  0  0  0  0  0  0  0  0  0  0
   10.1907    0.0837    0.9087 C   0  0  0  0  0  0  0  0  0  0  0  0
  1  2  1  0
  2  3  4  0
  2  4  4  0
  3  5  4  0
  4  6  4  0
  5  7  4  0
  7  8  1  0
  8  9  1  1
  8 10  1  0
  9 11  1  0
 10 12  1  0
 10 13  1  1
 11 14  1  0
 12 15  4  0
 12 16  4  0
 13 17  1  0
 14 18  1  0
 15 19  4  0
 16 20  4  0
 17 21  4  0
 17 22  4  0
 19 23  4  0
 21 24  4  0
 22 25  4  0
  6  7  4  0
 20 23  4  0
 24 25  4  0
M  END
