
     RDKit          3D

 25 28  0  0  0  0  0  0  0  0999 V2000
    5.9837    8.2495    2.4136 S   0  0  0  0  0  0  0  0  0  0  0  0
    5.3407    6.7407    3.0043 C   0  0  0  0  0  0  0  0  0  0  0  0
    5.4259    8.1682    0.7408 C   0  0  0  0  0  0  0  0  0  0  0  0
    3.8350    6.6697    3.0415 C   0  0  0  0  0  0  0  0  0  0  0  0
    6.1008    5.7200    3.4691 C   0  0  0  0  0  0  0  0  0  0  0  0
    4.5981    8.9570    0.2990 O   0  0  0  0  0  0  0  0  0  0  0  0
    6.0007    7.0302   -0.0507 C   0  0  0  0  0  0  0  0  0  0  0  0
    3.1278    7.5793    2.6040 O   0  0  0  0  0  0  0  0  0  0  0  0
    3.2076    5.4885    3.7281 C   0  0  0  0  0  0  0  0  0  0  0  0
    5.5048    4.3677    3.9287 C   0  0  1  0  0  0  0  0  0  0  0  0
    7.6151    5.8085    3.5998 C   0  0  0  0  0  0  0  0  0  0  0  0
    4.0253    4.2405    3.4705 C   0  0  0  0  0  0  0  0  0  0  0  0
    6.3099    3.1746    3.2755 C   0  0  1  0  0  0  0  0  0  0  0  0
    5.5528    4.3158    5.4736 C   0  0  0  0  0  0  0  0  0  0  0  0
    8.3288    4.6535    2.9094 C   0  0  0  0  0  0  0  0  0  0  0  0
    7.8534    3.3081    3.4603 C   0  0  2  0  0  0  0  0  0  0  0  0
    5.7981    1.7627    3.6849 C   0  0  0  0  0  0  0  0  0  0  0  0
    8.5295    2.1330    2.7494 C   0  0  2  0  0  0  0  0  0  0  0  0
    6.6121    0.6024    3.0818 C   0  0  0  0  0  0  0  0  0  0  0  0
    8.1017    0.7805    3.3535 C   0  0  1  0  0  0  0  0  0  0  0  0
   10.0509    2.0504    2.6901 C   0  0  0  0  0  0  0  0  0  0  0  0
    9.0471   -0.1171    2.5757 C   0  0  0  0  0  0  0  0  0  0  0  0
    8.4279    0.5743    4.8442 C   0  0  0  0  0  0  0  0  0  0  0  0
   10.2922    0.6367    2.1397 C   0  0  0  0  0  0  0  0  0  0  0  0
    8.8524   -1.3039    2.3499 O   0  0  0  0  0  0  0  0  0  0  0  0
  1  2  1  0
  1  3  1  0
  2  4  1  0
  2  5  2  0
  3  6  2  0
  3  7  1  0
  4  8  2  0
  4  9  1  0
  5 10  1  0
  5 11  1  0
  9 12  1  0
 10 13  1  0
 10 14  1  1
 11 15  1  0
 13 16  1  0
 13 17  1  1
 16 18  1  0
 17 19  1  0
 18 20  1  0
 18 21  1  1
 20 22  1  0
 20 23  1  1
 21 24  1  0
 22 25  2  0
 10 12  1  0
 16 15  1  6
 19 20  1  0
 22 24  1  0
M  END
