
     RDKit          3D

 27 30  0  0  0  0  0  0  0  0999 V2000
    2.3516    0.6968    0.8916 O   0  0  0  0  0  0  0  0  0  0  0  0
    3.2336    0.4241    1.7007 C   0  0  0  0  0  0  0  0  0  0  0  0
    3.9472    1.5162    2.4043 C   0  0  0  0  0  0  0  0  0  0  0  0
    3.7146   -0.9808    1.9370 C   0  0  0  0  0  0  0  0  0  0  0  0
    4.8804    1.2784    3.3446 C   0  0  0  0  0  0  0  0  0  0  0  0
    4.0309   -1.1350    3.4112 C   0  0  0  0  0  0  0  0  0  0  0  0
    5.1139   -0.1388    3.9278 C   0  0  1  0  0  0  0  0  0  0  0  0
    5.8432    2.3558    3.8592 C   0  0  1  0  0  0  0  0  0  0  0  0
    6.5727   -0.5498    3.5187 C   0  0  1  0  0  0  0  0  0  0  0  0
    4.9289   -0.1290    5.4698 C   0  0  0  0  0  0  0  0  0  0  0  0
    7.2898    1.9131    3.5473 C   0  0  0  0  0  0  0  0  0  0  0  0
    5.5946    3.8435    3.4564 C   0  0  0  0  0  0  0  0  0  0  0  0
    7.6228    0.4937    4.0393 C   0  0  2  0  0  0  0  0  0  0  0  0
    6.9660   -2.0047    3.8966 C   0  0  0  0  0  0  0  0  0  0  0  0
    6.7919    4.8104    3.3698 C   0  0  0  0  0  0  0  0  0  0  0  0
    9.0133    0.0463    3.5787 C   0  0  2  0  0  0  0  0  0  0  0  0
    8.4269   -2.3610    3.5651 C   0  0  0  0  0  0  0  0  0  0  0  0
    6.5093    6.2134    2.8332 C   0  0  0  0  0  0  0  0  0  0  0  0
    9.3902   -1.3359    4.1524 C   0  0  1  0  0  0  0  0  0  0  0  0
   10.2295    0.9168    3.8758 C   0  0  0  0  0  0  0  0  0  0  0  0
    5.6184    6.2044    1.5874 C   0  0  0  0  0  0  0  0  0  0  0  0
   10.8257   -1.3899    3.6597 C   0  0  0  0  0  0  0  0  0  0  0  0
    9.4448   -1.4362    5.6882 C   0  0  0  0  0  0  0  0  0  0  0  0
   11.4031    0.0051    3.4865 C   0  0  0  0  0  0  0  0  0  0  0  0
    4.1671    6.5240    1.9494 C   0  0  0  0  0  0  0  0  0  0  0  0
   11.4511   -2.4207    3.4441 O   0  0  0  0  0  0  0  0  0  0  0  0
    3.7637    7.9109    1.4734 C   0  0  0  0  0  0  0  0  0  0  0  0
  1  2  2  0
  2  3  1  0
  2  4  1  0
  3  5  2  0
  4  6  1  0
  5  7  1  0
  5  8  1  0
  7  9  1  0
  7 10  1  1
  8 11  1  0
  8 12  1  6
  9 13  1  0
  9 14  1  1
 12 15  1  0
 13 16  1  0
 14 17  1  0
 15 18  1  0
 16 19  1  0
 16 20  1  1
 18 21  1  0
 19 22  1  0
 19 23  1  1
 20 24  1  0
 21 25  1  0
 22 26  2  0
 25 27  1  0
  6  7  1  0
 13 11  1  6
 17 19  1  0
 22 24  1  0
M  END
