
     RDKit          3D

 33 37  0  0  0  0  0  0  0  0999 V2000
    5.9578    7.6662    1.1957 O   0  0  0  0  0  0  0  0  0  0  0  0
    5.3463    7.4597    2.2515 N   0  0  0  0  0  0  0  0  0  0  0  0
    4.8460    8.3461    2.9587 O   0  0  0  0  0  0  0  0  0  0  0  0
    5.2155    6.0693    2.7020 C   0  0  0  0  0  0  0  0  0  0  0  0
    6.2944    5.1870    2.5552 C   0  0  0  0  0  0  0  0  0  0  0  0
    4.0167    5.6404    3.2866 C   0  0  0  0  0  0  0  0  0  0  0  0
    6.1716    3.8700    3.0047 C   0  0  0  0  0  0  0  0  0  0  0  0
    3.9027    4.3200    3.7294 C   0  0  0  0  0  0  0  0  0  0  0  0
    4.9798    3.4276    3.6007 C   0  0  0  0  0  0  0  0  0  0  0  0
    4.8656    2.0129    4.1170 C   0  0  0  0  0  0  0  0  0  0  0  0
    5.2353    1.8593    5.5991 C   0  0  0  0  0  0  0  0  0  0  0  0
    5.1097    0.4146    6.1086 C   0  0  0  0  0  0  0  0  0  0  0  0
    5.9624   -0.5889    5.3038 C   0  0  2  0  0  0  0  0  0  0  0  0
    6.6073   -1.8113    6.0546 C   0  0  1  0  0  0  0  0  0  0  0  0
    7.0007    0.1739    4.4686 C   0  0  0  0  0  0  0  0  0  0  0  0
    7.7011   -2.5640    5.1468 C   0  0  0  0  0  0  0  0  0  0  0  0
    7.2280   -1.5236    7.4520 C   0  0  0  0  0  0  0  0  0  0  0  0
    7.7603   -0.6938    3.4941 C   0  0  0  0  0  0  0  0  0  0  0  0
    7.6298   -2.2091    3.6218 C   0  0  1  0  0  0  0  0  0  0  0  0
    9.1400   -2.3662    5.7155 C   0  0  0  0  0  0  0  0  0  0  0  0
    8.0509   -2.7319    7.9789 C   0  0  1  0  0  0  0  0  0  0  0  0
    6.3417   -1.1890    8.6539 C   0  0  0  0  0  0  0  0  0  0  0  0
    8.6151   -0.0977    2.6405 C   0  0  0  0  0  0  0  0  0  0  0  0
    8.7261   -2.9269    2.8355 C   0  0  0  0  0  0  0  0  0  0  0  0
    6.3227   -2.7455    2.9820 C   0  0  0  0  0  0  0  0  0  0  0  0
    9.3174   -2.8897    7.1458 C   0  0  0  0  0  0  0  0  0  0  0  0
    8.3049   -2.2814    9.4068 C   0  0  0  0  0  0  0  0  0  0  0  0
    7.2839   -4.0640    8.0851 C   0  0  0  0  0  0  0  0  0  0  0  0
    7.2869   -1.2643    9.8561 C   0  0  0  0  0  0  0  0  0  0  0  0
    9.5417   -0.8714    1.7876 C   0  0  0  0  0  0  0  0  0  0  0  0
    9.5790   -2.3316    1.9898 C   0  0  0  0  0  0  0  0  0  0  0  0
    9.2054   -2.7036   10.1204 O   0  0  0  0  0  0  0  0  0  0  0  0
   10.2862   -0.3173    0.9864 O   0  0  0  0  0  0  0  0  0  0  0  0
  1  2  2  0
  2  3  1  0
  2  4  1  0
  4  5  4  0
  4  6  4  0
  5  7  4  0
  6  8  4  0
  7  9  4  0
  9 10  1  0
 10 11  1  0
 11 12  1  0
 13 12  1  1
 14 13  1  0
 13 15  1  0
 14 16  1  0
 14 17  1  1
 15 18  1  0
 16 19  1  0
 16 20  1  0
 17 21  1  0
 17 22  1  0
 18 23  2  0
 19 24  1  0
 19 25  1  6
 20 26  1  0
 21 27  1  0
 21 28  1  1
 22 29  1  0
 23 30  1  0
 24 31  2  0
 27 32  2  0
 30 33  2  0
  8  9  4  0
 18 19  1  0
 21 26  1  0
 27 29  1  0
 30 31  1  0
M  CHG  2   2   1   3  -1
M  END
