
     RDKit          3D

 37 40  0  0  0  0  0  0  0  0999 V2000
    2.4093   -5.3875    7.6674 F   0  0  0  0  0  0  0  0  0  0  0  0
    3.4789   -4.6717    7.2976 C   0  0  0  0  0  0  0  0  0  0  0  0
    4.4771   -4.4037    8.2252 C   0  0  0  0  0  0  0  0  0  0  0  0
    3.5734   -4.2078    5.9921 C   0  0  0  0  0  0  0  0  0  0  0  0
    5.5940   -3.6611    7.8411 C   0  0  0  0  0  0  0  0  0  0  0  0
    4.6917   -3.4696    5.6033 C   0  0  0  0  0  0  0  0  0  0  0  0
    5.7196   -3.1866    6.5225 C   0  0  0  0  0  0  0  0  0  0  0  0
    6.9456   -2.3924    6.0626 C   0  0  0  0  0  0  0  0  0  0  0  0
    7.0007   -0.9841    6.5900 N   0  0  0  0  0  0  0  0  0  0  0  0
    8.2272   -3.1801    6.4854 C   0  0  0  0  0  0  0  0  0  0  0  0
    7.3030   -0.0196    5.4951 C   0  0  0  0  0  0  0  0  0  0  0  0
    5.7262   -0.5529    7.2187 C   0  0  0  0  0  0  0  0  0  0  0  0
    8.7236   -3.0867    7.6082 O   0  0  0  0  0  0  0  0  0  0  0  0
    8.7831   -3.9402    5.4781 N   0  0  0  0  0  0  0  0  0  0  0  0
    6.1345    0.2700    4.5140 C   0  0  0  0  0  0  0  0  0  0  0  0
    4.5582   -0.3081    6.2331 C   0  0  0  0  0  0  0  0  0  0  0  0
    8.2441   -5.1999    5.0349 C   0  0  0  0  0  0  0  0  0  0  0  0
    4.8551    0.6586    5.1507 N   0  0  0  0  0  0  0  0  0  0  0  0
    7.1951   -4.9772    3.9782 C   0  0  0  0  0  0  0  0  0  0  0  0
    4.9079    2.0430    5.6871 C   0  0  0  0  0  0  0  0  0  0  0  0
    7.2553   -3.8387    3.1590 C   0  0  0  0  0  0  0  0  0  0  0  0
    6.1382   -5.8814    3.8077 C   0  0  0  0  0  0  0  0  0  0  0  0
    4.6350    3.0932    4.5854 C   0  0  0  0  0  0  0  0  0  0  0  0
    6.2846   -3.6161    2.1824 C   0  0  0  0  0  0  0  0  0  0  0  0
    5.1700   -5.6588    2.8267 C   0  0  0  0  0  0  0  0  0  0  0  0
    4.6691    4.3938    5.1932 O   0  0  0  0  0  0  0  0  0  0  0  0
    5.6683    3.0444    3.4476 C   0  0  0  0  0  0  0  0  0  0  0  0
    5.2440   -4.5277    2.0153 C   0  0  0  0  0  0  0  0  0  0  0  0
    6.6026    4.1287    3.5294 O   0  0  0  0  0  0  0  0  0  0  0  0
    6.5041    5.1023    2.5780 C   0  0  0  0  0  0  0  0  0  0  0  0
    5.2947    5.7940    2.5448 C   0  0  0  0  0  0  0  0  0  0  0  0
    7.5181    5.4447    1.6857 C   0  0  0  0  0  0  0  0  0  0  0  0
    5.0780    6.7803    1.5814 C   0  0  0  0  0  0  0  0  0  0  0  0
    7.3024    6.4412    0.7247 C   0  0  0  0  0  0  0  0  0  0  0  0
    6.0775    7.1067    0.6629 C   0  0  0  0  0  0  0  0  0  0  0  0
    5.7359    8.0810   -0.2337 O   0  0  0  0  0  0  0  0  0  0  0  0
    4.7994    7.7272   -1.2441 C   0  0  0  0  0  0  0  0  0  0  0  0
  1  2  1  0
  2  3  4  0
  2  4  4  0
  3  5  4  0
  4  6  4  0
  5  7  4  0
  7  8  1  0
  8  9  1  0
  8 10  1  0
  9 11  1  0
  9 12  1  0
 10 13  2  0
 10 14  1  0
 11 15  1  0
 12 16  1  0
 14 17  1  0
 15 18  1  0
 17 19  1  0
 18 20  1  0
 19 21  4  0
 19 22  4  0
 20 23  1  0
 21 24  4  0
 22 25  4  0
 23 26  1  0
 23 27  1  0
 24 28  4  0
 27 29  1  0
 29 30  1  0
 30 31  4  0
 30 32  4  0
 31 33  4  0
 32 34  4  0
 33 35  4  0
 35 36  1  0
 36 37  1  0
  6  7  4  0
 16 18  1  0
 25 28  4  0
 34 35  4  0
M  END
