
     RDKit          3D

 26 29  0  0  0  0  0  0  0  0999 V2000
    2.9247    6.9399    1.7192 O   0  0  0  0  0  0  0  0  0  0  0  0
    3.6096    6.1441    2.3559 C   0  0  0  0  0  0  0  0  0  0  0  0
    5.0660    6.3767    2.4960 C   0  0  0  0  0  0  0  0  0  0  0  0
    3.0547    4.8612    2.9156 C   0  0  0  0  0  0  0  0  0  0  0  0
    5.8232    5.6031    3.2963 C   0  0  0  0  0  0  0  0  0  0  0  0
    3.6738    4.6195    4.2778 C   0  0  0  0  0  0  0  0  0  0  0  0
    7.2904    5.6049    3.1747 C   0  0  0  0  0  0  0  0  0  0  0  0
    5.2272    4.5419    4.2523 C   0  0  1  0  0  0  0  0  0  0  0  0
    7.9729    4.4588    3.3787 C   0  0  0  0  0  0  0  0  0  0  0  0
    8.0300    6.8810    2.8146 C   0  0  0  0  0  0  0  0  0  0  0  0
    5.7795    3.1860    3.7063 C   0  0  1  0  0  0  0  0  0  0  0  0
    5.6672    4.8087    5.7170 C   0  0  0  0  0  0  0  0  0  0  0  0
    7.3437    3.1567    3.8131 C   0  0  1  0  0  0  0  0  0  0  0  0
    8.2537    7.0138    1.3029 C   0  0  0  0  0  0  0  0  0  0  0  0
    5.1630    1.8901    4.2823 C   0  0  0  0  0  0  0  0  0  0  0  0
    7.8191    1.9200    3.0484 C   0  0  2  0  0  0  0  0  0  0  0  0
    7.2196    6.2512    0.4678 C   0  0  0  0  0  0  0  0  0  0  0  0
    5.7715    0.6189    3.6480 C   0  0  0  0  0  0  0  0  0  0  0  0
    7.2976    0.6282    3.7250 C   0  0  1  0  0  0  0  0  0  0  0  0
    9.3058    1.6532    2.8412 C   0  0  0  0  0  0  0  0  0  0  0  0
    6.1728    7.1142   -0.2408 C   0  0  0  0  0  0  0  0  0  0  0  0
    8.0358   -0.3763    2.8593 C   0  0  0  0  0  0  0  0  0  0  0  0
    7.7691    0.3798    5.1716 C   0  0  0  0  0  0  0  0  0  0  0  0
    9.3161    0.2172    2.2934 C   0  0  0  0  0  0  0  0  0  0  0  0
    5.9688    8.4759    0.4044 C   0  0  0  0  0  0  0  0  0  0  0  0
    7.6694   -1.5268    2.6615 O   0  0  0  0  0  0  0  0  0  0  0  0
  1  2  2  0
  2  3  1  0
  2  4  1  0
  3  5  2  0
  4  6  1  0
  5  7  1  0
  5  8  1  0
  7  9  2  0
  7 10  1  0
  8 11  1  0
  8 12  1  1
 13  9  1  6
 10 14  1  0
 11 15  1  1
 13 16  1  0
 14 17  1  0
 15 18  1  0
 16 19  1  0
 16 20  1  1
 17 21  1  0
 19 22  1  0
 19 23  1  1
 20 24  1  0
 21 25  1  0
 22 26  2  0
  6  8  1  0
 11 13  1  0
 18 19  1  0
 22 24  1  0
M  END
