
     RDKit          3D

 21 24  0  0  0  0  0  0  0  0999 V2000
    5.8631    8.8800    2.9564 O   0  0  0  0  0  0  0  0  0  0  0  0
    5.2672    7.8193    2.7815 C   0  0  0  0  0  0  0  0  0  0  0  0
    5.9949    6.5113    2.7836 C   0  0  0  0  0  0  0  0  0  0  0  0
    3.7947    7.7819    2.4498 C   0  0  0  0  0  0  0  0  0  0  0  0
    7.2280    6.4974    2.2498 C   0  0  0  0  0  0  0  0  0  0  0  0
    5.2850    5.2931    3.3497 C   0  0  2  0  0  0  0  0  0  0  0  0
    3.0846    6.6168    3.1189 C   0  0  0  0  0  0  0  0  0  0  0  0
    8.0772    5.2705    2.1445 C   0  0  0  0  0  0  0  0  0  0  0  0
    5.9924    3.9762    2.8419 C   0  0  1  0  0  0  0  0  0  0  0  0
    3.8070    5.2929    2.8696 C   0  0  0  0  0  0  0  0  0  0  0  0
    5.3280    5.4015    4.8932 C   0  0  0  0  0  0  0  0  0  0  0  0
    7.5471    4.0813    2.9633 C   0  0  1  0  0  0  0  0  0  0  0  0
    5.4249    2.6719    3.4691 C   0  0  0  0  0  0  0  0  0  0  0  0
    8.1718    2.7652    2.4941 C   0  0  2  0  0  0  0  0  0  0  0  0
    6.1931    1.3981    3.0735 C   0  0  0  0  0  0  0  0  0  0  0  0
    7.6875    1.5645    3.3291 C   0  0  1  0  0  0  0  0  0  0  0  0
    9.6891    2.6168    2.4677 C   0  0  0  0  0  0  0  0  0  0  0  0
    8.5997    0.5048    2.7376 C   0  0  0  0  0  0  0  0  0  0  0  0
    7.9997    1.6238    4.8354 C   0  0  0  0  0  0  0  0  0  0  0  0
    9.8772    1.1180    2.1886 C   0  0  0  0  0  0  0  0  0  0  0  0
    8.3562   -0.6943    2.7236 O   0  0  0  0  0  0  0  0  0  0  0  0
  1  2  2  0
  2  3  1  0
  2  4  1  0
  3  5  2  0
  3  6  1  0
  4  7  1  0
  5  8  1  0
  6  9  1  0
  6 10  1  0
  6 11  1  1
 12  8  1  6
  9 13  1  1
 12 14  1  0
 13 15  1  0
 14 16  1  0
 14 17  1  1
 16 18  1  0
 16 19  1  1
 17 20  1  0
 18 21  2  0
  7 10  1  0
  9 12  1  0
 15 16  1  0
 18 20  1  0
M  END
