
     RDKit          3D

 23 26  0  0  0  0  0  0  0  0999 V2000
    3.8971    4.8122    6.4027 S   0  0  0  0  0  0  0  0  0  0  0  0
    5.3923    5.2841    5.4572 C   0  0  0  0  0  0  0  0  0  0  0  0
    3.9583    3.0166    6.1743 C   0  0  0  0  0  0  0  0  0  0  0  0
    5.5083    4.8431    3.9443 C   0  0  1  0  0  0  0  0  0  0  0  0
    6.1706    5.9631    3.1287 C   0  0  0  0  0  0  0  0  0  0  0  0
    6.2606    3.4305    3.8463 C   0  0  2  0  0  0  0  0  0  0  0  0
    4.0368    4.7012    3.4208 C   0  0  0  0  0  0  0  0  0  0  0  0
    5.4815    6.9371    2.5034 C   0  0  0  0  0  0  0  0  0  0  0  0
    7.6709    5.9680    3.0281 C   0  0  0  0  0  0  0  0  0  0  0  0
    7.8044    3.4984    3.5426 C   0  0  2  0  0  0  0  0  0  0  0  0
    5.6029    2.3351    2.9563 C   0  0  0  0  0  0  0  0  0  0  0  0
    3.2516    6.0071    3.3596 C   0  0  0  0  0  0  0  0  0  0  0  0
    4.0073    7.0485    2.5806 C   0  0  0  0  0  0  0  0  0  0  0  0
    8.1739    4.6200    2.5637 C   0  0  0  0  0  0  0  0  0  0  0  0
    8.3187    2.1697    2.9575 C   0  0  2  0  0  0  0  0  0  0  0  0
    6.1925    0.9185    3.1821 C   0  0  0  0  0  0  0  0  0  0  0  0
    3.4472    8.0075    2.0559 O   0  0  0  0  0  0  0  0  0  0  0  0
    7.6678    0.9331    3.5906 C   0  0  1  0  0  0  0  0  0  0  0  0
    9.8177    1.8861    3.0038 C   0  0  0  0  0  0  0  0  0  0  0  0
    8.5422   -0.1325    2.9462 C   0  0  0  0  0  0  0  0  0  0  0  0
    7.8577    0.7750    5.1093 C   0  0  0  0  0  0  0  0  0  0  0  0
    9.9006    0.4217    2.5541 C   0  0  0  0  0  0  0  0  0  0  0  0
    8.2110   -1.2998    2.7835 O   0  0  0  0  0  0  0  0  0  0  0  0
  1  2  1  0
  1  3  1  0
  4  2  1  1
  4  5  1  0
  4  6  1  0
  4  7  1  0
  5  8  2  0
  5  9  1  0
  6 10  1  0
  6 11  1  6
  7 12  1  0
  8 13  1  0
  9 14  1  0
 10 15  1  0
 11 16  1  0
 13 17  2  0
 15 18  1  0
 15 19  1  1
 18 20  1  0
 18 21  1  1
 19 22  1  0
 20 23  2  0
 10 14  1  6
 12 13  1  0
 16 18  1  0
 20 22  1  0
M  END
