
     RDKit          3D

 37 40  0  0  0  0  0  0  0  0999 V2000
    4.3394    7.8389   -0.9331 Cl  0  0  0  0  0  0  0  0  0  0  0  0
    4.4822    6.9878    0.5554 C   0  0  0  0  0  0  0  0  0  0  0  0
    3.3399    6.6520    1.2796 C   0  0  0  0  0  0  0  0  0  0  0  0
    5.7417    6.6345    1.0301 C   0  0  0  0  0  0  0  0  0  0  0  0
    3.4552    5.9568    2.4895 C   0  0  0  0  0  0  0  0  0  0  0  0
    5.8533    5.9421    2.2376 C   0  0  0  0  0  0  0  0  0  0  0  0
    4.7145    5.6025    2.9753 C   0  0  0  0  0  0  0  0  0  0  0  0
    4.9783    4.9242    4.1311 O   0  0  0  0  0  0  0  0  0  0  0  0
    4.3473    3.6539    4.3432 C   0  0  0  0  0  0  0  0  0  0  0  0
    4.5938    3.1849    5.7844 C   0  0  0  0  0  0  0  0  0  0  0  0
    3.8938    4.0566    6.6869 O   0  0  0  0  0  0  0  0  0  0  0  0
    4.0946    1.7456    6.0023 C   0  0  0  0  0  0  0  0  0  0  0  0
    5.1242    0.7260    5.7345 N   0  0  0  0  0  0  0  0  0  0  0  0
    6.3975    1.3505    5.3366 C   0  0  0  0  0  0  0  0  0  0  0  0
    4.6881   -0.2302    4.6892 C   0  0  0  0  0  0  0  0  0  0  0  0
    7.5311    0.3121    5.1089 C   0  0  0  0  0  0  0  0  0  0  0  0
    5.8487   -0.8643    3.8770 C   0  0  0  0  0  0  0  0  0  0  0  0
    7.1071   -1.0279    4.6246 N   0  0  0  0  0  0  0  0  0  0  0  0
    7.0264   -2.0314    5.7288 C   0  0  0  0  0  0  0  0  0  0  0  0
    8.3466   -2.1132    6.5065 C   0  0  0  0  0  0  0  0  0  0  0  0
    6.6254   -3.4661    5.2334 C   0  0  0  0  0  0  0  0  0  0  0  0
    8.3346   -2.2088    7.9087 C   0  0  0  0  0  0  0  0  0  0  0  0
    9.5825   -2.1248    5.8420 C   0  0  0  0  0  0  0  0  0  0  0  0
    6.8142   -3.6844    3.8067 N   0  0  0  0  0  0  0  0  0  0  0  0
    9.5288   -2.3158    8.6237 C   0  0  0  0  0  0  0  0  0  0  0  0
   10.7749   -2.2327    6.5592 C   0  0  0  0  0  0  0  0  0  0  0  0
    8.0683   -3.7960    3.2476 C   0  0  0  0  0  0  0  0  0  0  0  0
   10.7478   -2.3287    7.9487 C   0  0  0  0  0  0  0  0  0  0  0  0
    8.9887   -4.4224    3.7640 O   0  0  0  0  0  0  0  0  0  0  0  0
    8.2658   -3.1508    1.9184 C   0  0  0  0  0  0  0  0  0  0  0  0
    9.2486   -2.1846    1.6561 C   0  0  0  0  0  0  0  0  0  0  0  0
    7.4081   -3.5556    0.8829 C   0  0  0  0  0  0  0  0  0  0  0  0
   10.1022   -1.7889    2.6557 O   0  0  0  0  0  0  0  0  0  0  0  0
    9.3266   -1.5949    0.3878 C   0  0  0  0  0  0  0  0  0  0  0  0
    7.5074   -2.9838   -0.3859 C   0  0  0  0  0  0  0  0  0  0  0  0
    9.9609   -0.3966    2.9567 C   0  0  0  0  0  0  0  0  0  0  0  0
    8.4607   -1.9984   -0.6301 C   0  0  0  0  0  0  0  0  0  0  0  0
  1  2  1  0
  2  3  4  0
  2  4  4  0
  3  5  4  0
  4  6  4  0
  5  7  4  0
  7  8  1  0
  8  9  1  0
  9 10  1  0
 10 11  1  0
 10 12  1  0
 12 13  1  0
 13 14  1  0
 13 15  1  0
 14 16  1  0
 15 17  1  0
 16 18  1  0
 18 19  1  0
 19 20  1  0
 19 21  1  0
 20 22  4  0
 20 23  4  0
 21 24  1  0
 22 25  4  0
 23 26  4  0
 24 27  1  0
 25 28  4  0
 27 29  2  0
 27 30  1  0
 30 31  4  0
 30 32  4  0
 31 33  1  0
 31 34  4  0
 32 35  4  0
 33 36  1  0
 34 37  4  0
  6  7  4  0
 17 18  1  0
 26 28  4  0
 35 37  4  0
M  END
