
     RDKit          3D

 23 26  0  0  0  0  0  0  0  0999 V2000
    8.9413    7.3659    1.3344 Br  0  0  0  0  0  0  0  0  0  0  0  0
    8.2204    5.9747    2.5066 C   0  0  1  0  0  0  0  0  0  0  0  0
    6.7189    6.0315    2.7276 C   0  0  0  0  0  0  0  0  0  0  0  0
    8.6326    4.6212    1.9293 C   0  0  0  0  0  0  0  0  0  0  0  0
    5.8891    6.9130    2.1356 C   0  0  0  0  0  0  0  0  0  0  0  0
    6.1894    4.9323    3.6761 C   0  0  1  0  0  0  0  0  0  0  0  0
    8.1780    3.4682    2.8342 C   0  0  1  0  0  0  0  0  0  0  0  0
    4.4232    6.9064    2.3282 C   0  0  0  0  0  0  0  0  0  0  0  0
    4.6710    4.9785    3.8030 C   0  0  0  0  0  0  0  0  0  0  0  0
    6.6344    3.5355    3.0959 C   0  0  1  0  0  0  0  0  0  0  0  0
    6.7313    5.1788    5.1035 C   0  0  0  0  0  0  0  0  0  0  0  0
    8.5040    2.1030    2.2220 C   0  0  2  0  0  0  0  0  0  0  0  0
    3.7215    7.7410    1.7688 O   0  0  0  0  0  0  0  0  0  0  0  0
    3.8524    5.8593    3.2070 C   0  0  0  0  0  0  0  0  0  0  0  0
    6.1450    2.3048    3.9161 C   0  0  0  0  0  0  0  0  0  0  0  0
    8.1484    0.9499    3.1818 C   0  0  1  0  0  0  0  0  0  0  0  0
    9.9260    1.7867    1.7710 C   0  0  0  0  0  0  0  0  0  0  0  0
    2.3664    5.8684    3.3816 C   0  0  0  0  0  0  0  0  0  0  0  0
    6.6355    0.9512    3.3679 C   0  0  0  0  0  0  0  0  0  0  0  0
    8.7335   -0.1959    2.3758 C   0  0  0  0  0  0  0  0  0  0  0  0
    8.8786    0.9500    4.5375 C   0  0  0  0  0  0  0  0  0  0  0  0
    9.8614    0.2804    1.4762 C   0  0  0  0  0  0  0  0  0  0  0  0
    8.3674   -1.3606    2.4558 O   0  0  0  0  0  0  0  0  0  0  0  0
  2  1  1  6
  2  3  1  0
  2  4  1  0
  3  5  2  0
  3  6  1  0
  7  4  1  6
  5  8  1  0
  6  9  1  0
  6 10  1  0
  6 11  1  1
  7 12  1  0
  8 13  2  0
  8 14  1  0
 10 15  1  1
 12 16  1  0
 12 17  1  1
 14 18  1  0
 15 19  1  0
 16 20  1  0
 16 21  1  1
 17 22  1  0
 20 23  2  0
  7 10  1  0
  9 14  2  0
 16 19  1  0
 20 22  1  0
M  END
