
     RDKit          3D

 21 23  0  0  0  0  0  0  0  0999 V2000
    9.9686    0.4864    1.6805 O   0  0  0  0  0  0  0  0  0  0  0  0
    9.4731    1.5319    2.0808 C   0  0  0  0  0  0  0  0  0  0  0  0
    9.4714    2.7514    1.2490 C   0  0  0  0  0  0  0  0  0  0  0  0
    8.8452    1.6239    3.4111 C   0  0  0  0  0  0  0  0  0  0  0  0
    8.9479    3.9100    1.6881 C   0  0  0  0  0  0  0  0  0  0  0  0
    8.3254    2.7782    3.8497 C   0  0  0  0  0  0  0  0  0  0  0  0
    8.3191    4.0924    3.0726 C   0  0  2  0  0  0  0  0  0  0  0  0
    8.9027    5.1102    0.7833 C   0  0  0  0  0  0  0  0  0  0  0  0
    6.8416    4.6049    2.8718 C   0  0  2  0  0  0  0  0  0  0  0  0
    9.1792    5.0792    3.8941 C   0  0  0  0  0  0  0  0  0  0  0  0
    7.4639    5.5751    0.5942 C   0  0  0  0  0  0  0  0  0  0  0  0
    6.7441    5.8487    1.9323 C   0  0  0  0  0  0  0  0  0  0  0  0
    6.1084    4.9014    4.1945 C   0  0  0  0  0  0  0  0  0  0  0  0
    5.2574    6.2773    1.6996 C   0  0  1  0  0  0  0  0  0  0  0  0
    4.6502    5.2736    3.9567 C   0  0  0  0  0  0  0  0  0  0  0  0
    4.4704    6.4968    3.0367 C   0  0  2  0  0  0  0  0  0  0  0  0
    5.1660    7.5099    0.7789 C   0  0  0  0  0  0  0  0  0  0  0  0
    2.9673    6.5697    2.7414 C   0  0  0  0  0  0  0  0  0  0  0  0
    4.9231    7.7844    3.7575 C   0  0  0  0  0  0  0  0  0  0  0  0
    2.4019    6.1752    1.7340 O   0  0  0  0  0  0  0  0  0  0  0  0
    2.2370    7.0723    3.7560 O   0  0  0  0  0  0  0  0  0  0  0  0
  1  2  2  0
  2  3  1  0
  2  4  1  0
  3  5  2  0
  4  6  2  0
  5  7  1  0
  5  8  1  0
  7  9  1  0
  7 10  1  1
  8 11  1  0
  9 12  1  0
  9 13  1  1
 12 14  1  0
 13 15  1  0
 14 16  1  0
 14 17  1  1
 16 18  1  0
 16 19  1  1
 18 20  2  0
 18 21  1  0
  6  7  1  0
 11 12  1  0
 15 16  1  0
M  END
