
     RDKit          3D

 26 28  0  0  0  0  0  0  0  0999 V2000
   10.2787   -0.7950    2.1274 S   0  0  0  0  0  0  0  0  0  0  0  0
   10.1142   -0.4954    0.7210 O   0  0  0  0  0  0  0  0  0  0  0  0
   11.5906   -1.0207    2.6964 O   0  0  0  0  0  0  0  0  0  0  0  0
    9.5265    0.4293    3.0178 N   0  0  0  0  0  0  0  0  0  0  0  0
    9.2703   -2.2171    2.5032 C   0  0  0  0  0  0  0  0  0  0  0  0
    8.9853    1.5818    2.2591 C   0  0  0  0  0  0  0  0  0  0  0  0
    8.7947    0.0501    4.2496 C   0  0  0  0  0  0  0  0  0  0  0  0
    8.3524    2.5883    3.2124 C   0  0  0  0  0  0  0  0  0  0  0  0
    7.3305    0.4602    4.1571 C   0  0  0  0  0  0  0  0  0  0  0  0
    7.1776    1.9842    3.9995 C   0  0  0  0  0  0  0  0  0  0  0  0
    5.7774    2.3834    3.4701 C   0  0  0  0  0  0  0  0  0  0  0  0
    4.7143    2.4296    4.4982 N   0  0  0  0  0  0  0  0  0  0  0  0
    4.2298    3.8187    4.7448 C   0  0  2  0  0  0  0  0  0  0  0  0
    5.1336    1.7510    5.7417 C   0  0  0  0  0  0  0  0  0  0  0  0
    5.3337    4.9115    4.7480 C   0  0  0  0  0  0  0  0  0  0  0  0
    3.4137    3.8471    6.0501 C   0  0  0  0  0  0  0  0  0  0  0  0
    4.2215    0.5820    6.1035 C   0  0  0  0  0  0  0  0  0  0  0  0
    5.4330    5.6696    3.4414 C   0  0  0  0  0  0  0  0  0  0  0  0
    4.2664    6.0694    2.7679 C   0  0  0  0  0  0  0  0  0  0  0  0
    6.6976    5.9929    2.9021 C   0  0  0  0  0  0  0  0  0  0  0  0
    4.3950    6.7674    1.5801 C   0  0  0  0  0  0  0  0  0  0  0  0
    6.8071    6.7073    1.7063 C   0  0  0  0  0  0  0  0  0  0  0  0
    5.6437    7.0755    1.0659 C   0  0  0  0  0  0  0  0  0  0  0  0
    3.3528    7.3575    0.7115 C   0  0  0  0  0  0  0  0  0  0  0  0
    5.5975    7.7847   -0.1060 O   0  0  0  0  0  0  0  0  0  0  0  0
    4.2126    7.6788   -0.5121 C   0  0  0  0  0  0  0  0  0  0  0  0
  1  2  2  0
  1  3  2  0
  1  4  1  0
  1  5  1  0
  4  6  1  0
  4  7  1  0
  6  8  1  0
  7  9  1  0
  8 10  1  0
 10 11  1  0
 11 12  1  0
 13 12  1  0
 12 14  1  0
 13 15  1  0
 13 16  1  1
 14 17  1  0
 15 18  1  0
 18 19  4  0
 18 20  4  0
 19 21  4  0
 20 22  4  0
 21 23  4  0
 21 24  1  0
 23 25  1  0
 24 26  1  0
  9 10  1  0
 22 23  4  0
 25 26  1  0
M  END
