
     RDKit          3D

 25 28  0  0  0  0  0  0  0  0999 V2000
    4.0755    4.7298    5.2500 O   0  0  0  0  0  0  0  0  0  0  0  0
    4.5253    3.6819    4.7953 C   0  0  0  0  0  0  0  0  0  0  0  0
    4.4856    2.4477    5.6140 C   0  0  0  0  0  0  0  0  0  0  0  0
    5.2304    3.6068    3.4707 C   0  0  0  0  0  0  0  0  0  0  0  0
    4.8675    1.2530    5.1222 C   0  0  0  0  0  0  0  0  0  0  0  0
    4.8445    2.3087    2.7888 C   0  0  0  0  0  0  0  0  0  0  0  0
    5.1815    1.0288    3.6183 C   0  0  1  0  0  0  0  0  0  0  0  0
    5.1274    0.0400    6.0229 C   0  0  0  0  0  0  0  0  0  0  0  0
    6.6996    0.6325    3.5339 C   0  0  1  0  0  0  0  0  0  0  0  0
    4.2751   -0.0835    3.0286 C   0  0  0  0  0  0  0  0  0  0  0  0
    6.6202   -0.3359    5.8979 C   0  0  0  0  0  0  0  0  0  0  0  0
    4.6901    0.1324    7.5087 C   0  0  0  0  0  0  0  0  0  0  0  0
    7.0287   -0.5928    4.4387 C   0  0  2  0  0  0  0  0  0  0  0  0
    7.2700    0.4469    2.1071 C   0  0  0  0  0  0  0  0  0  0  0  0
    3.1786    0.1868    7.7705 C   0  0  0  0  0  0  0  0  0  0  0  0
    8.5001   -1.0393    4.3098 C   0  0  1  0  0  0  0  0  0  0  0  0
    7.8243   -0.9469    1.8158 C   0  0  0  0  0  0  0  0  0  0  0  0
    2.3883   -0.0362    6.4796 C   0  0  0  0  0  0  0  0  0  0  0  0
    8.8364   -1.4539    2.8536 C   0  0  0  0  0  0  0  0  0  0  0  0
    9.5357    0.0297    4.7006 C   0  0  0  0  0  0  0  0  0  0  0  0
    2.5083   -1.4719    5.9938 C   0  0  0  0  0  0  0  0  0  0  0  0
   10.2216   -0.8549    2.6512 C   0  0  0  0  0  0  0  0  0  0  0  0
    8.9703   -2.9794    2.7368 C   0  0  0  0  0  0  0  0  0  0  0  0
   10.7962   -0.3143    3.9284 C   0  0  0  0  0  0  0  0  0  0  0  0
   10.8333   -0.8679    1.5898 O   0  0  0  0  0  0  0  0  0  0  0  0
  1  2  2  0
  2  3  1  0
  2  4  1  0
  3  5  2  0
  4  6  1  0
  5  7  1  0
  5  8  1  0
  7  9  1  0
  7 10  1  6
  8 11  1  0
  8 12  1  0
  9 13  1  0
  9 14  1  6
 12 15  1  0
 13 16  1  0
 14 17  1  0
 15 18  1  0
 16 19  1  0
 16 20  1  6
 18 21  1  0
 19 22  1  0
 19 23  1  0
 20 24  1  0
 22 25  2  0
  6  7  1  0
 13 11  1  1
 17 19  1  0
 22 24  1  0
M  END
