
     RDKit          3D

 29 33  0  0  0  0  0  0  0  0999 V2000
    2.5606   -0.2194    0.3027 O   0  0  0  0  0  0  0  0  0  0  0  0
    3.3921   -0.4120    1.1856 C   0  0  0  0  0  0  0  0  0  0  0  0
    3.7421    0.6896    2.1158 C   0  0  0  0  0  0  0  0  0  0  0  0
    4.1611   -1.6993    1.3045 C   0  0  0  0  0  0  0  0  0  0  0  0
    4.5951    0.5161    3.1452 C   0  0  0  0  0  0  0  0  0  0  0  0
    4.4060   -1.9963    2.7713 C   0  0  0  0  0  0  0  0  0  0  0  0
    5.1705   -0.8663    3.5216 C   0  0  1  0  0  0  0  0  0  0  0  0
    5.1843    1.6906    3.9340 C   0  0  1  0  0  0  0  0  0  0  0  0
    6.6940   -0.7991    3.1529 C   0  0  1  0  0  0  0  0  0  0  0  0
    4.9522   -1.1723    5.0263 C   0  0  0  0  0  0  0  0  0  0  0  0
    6.6950    1.7375    3.6162 C   0  0  0  0  0  0  0  0  0  0  0  0
    4.5145    3.0634    3.6811 C   0  0  0  0  0  0  0  0  0  0  0  0
    7.4076    0.3962    3.8785 C   0  0  2  0  0  0  0  0  0  0  0  0
    7.4663   -2.1324    3.3435 C   0  0  0  0  0  0  0  0  0  0  0  0
    5.4669    4.2503    3.8763 C   0  0  0  0  0  0  0  0  0  0  0  0
    8.8684    0.4238    3.4197 C   0  0  2  0  0  0  0  0  0  0  0  0
    8.9732   -2.0250    3.0400 C   0  0  0  0  0  0  0  0  0  0  0  0
    5.2057    5.3397    2.8651 C   0  0  0  0  0  0  0  0  0  0  0  0
    9.6096   -0.8722    3.8093 C   0  0  1  0  0  0  0  0  0  0  0  0
    9.7961    1.5392    3.8886 C   0  0  0  0  0  0  0  0  0  0  0  0
    6.2609    5.8936    2.1283 C   0  0  0  0  0  0  0  0  0  0  0  0
    3.9081    5.8323    2.6711 C   0  0  0  0  0  0  0  0  0  0  0  0
   11.0075   -0.4604    3.3841 C   0  0  0  0  0  0  0  0  0  0  0  0
    9.6834   -1.1817    5.3161 C   0  0  0  0  0  0  0  0  0  0  0  0
   11.1762    1.0492    3.4250 C   0  0  0  0  0  0  0  0  0  0  0  0
    6.0203    6.9138    1.2067 C   0  0  0  0  0  0  0  0  0  0  0  0
    3.6698    6.8526    1.7491 C   0  0  0  0  0  0  0  0  0  0  0  0
   11.8985   -1.2394    3.0731 O   0  0  0  0  0  0  0  0  0  0  0  0
    4.7253    7.3923    1.0167 C   0  0  0  0  0  0  0  0  0  0  0  0
  1  2  2  0
  2  3  1  0
  2  4  1  0
  3  5  2  0
  4  6  1  0
  5  7  1  0
  5  8  1  0
  7  9  1  0
  7 10  1  1
  8 11  1  0
  8 12  1  6
  9 13  1  0
  9 14  1  1
 12 15  1  0
 13 16  1  0
 14 17  1  0
 15 18  1  0
 16 19  1  0
 16 20  1  1
 18 21  4  0
 18 22  4  0
 19 23  1  0
 19 24  1  1
 20 25  1  0
 21 26  4  0
 22 27  4  0
 23 28  2  0
 26 29  4  0
  6  7  1  0
 13 11  1  6
 17 19  1  0
 23 25  1  0
 27 29  4  0
M  END
