
     RDKit          3D

 22 25  0  0  0  0  0  0  0  0999 V2000
    8.9478   -1.1002    0.7243 O   0  0  0  0  0  0  0  0  0  0  0  0
    8.4766   -0.2631    1.4832 C   0  0  0  0  0  0  0  0  0  0  0  0
    9.1409    1.0370    1.7027 C   0  0  0  0  0  0  0  0  0  0  0  0
    7.2168   -0.5064    2.2087 C   0  0  0  0  0  0  0  0  0  0  0  0
    8.6426    1.9560    2.5492 C   0  0  0  0  0  0  0  0  0  0  0  0
    6.7205    0.4071    3.0538 C   0  0  0  0  0  0  0  0  0  0  0  0
    7.3646    1.7537    3.3701 C   0  0  2  0  0  0  0  0  0  0  0  0
    9.3125    3.2963    2.6890 C   0  0  0  0  0  0  0  0  0  0  0  0
    6.3757    2.9302    3.0215 C   0  0  0  0  0  0  0  0  0  0  0  0
    7.7278    1.7127    4.8715 C   0  0  0  0  0  0  0  0  0  0  0  0
    8.3382    4.4140    2.3352 C   0  0  0  0  0  0  0  0  0  0  0  0
    7.0361    4.3416    3.1567 C   0  0  1  0  0  0  0  0  0  0  0  0
    5.0500    2.8874    3.8140 C   0  0  0  0  0  0  0  0  0  0  0  0
    6.0362    5.4551    2.7376 C   0  0  1  0  0  0  0  0  0  0  0  0
    4.1016    4.0121    3.4064 C   0  0  0  0  0  0  0  0  0  0  0  0
    4.7271    5.4096    3.5452 C   0  0  2  0  0  0  0  0  0  0  0  0
    6.6257    6.8656    2.7941 C   0  0  0  0  0  0  0  0  0  0  0  0
    3.7794    6.3259    2.9467 O   0  0  0  0  0  0  0  0  0  0  0  0
    4.8659    5.7745    5.0335 C   0  0  0  0  0  0  0  0  0  0  0  0
    5.5781    7.9706    2.7254 C   0  0  0  0  0  0  0  0  0  0  0  0
    4.1550    7.5379    2.4807 C   0  0  0  0  0  0  0  0  0  0  0  0
    3.3465    8.2820    1.9338 O   0  0  0  0  0  0  0  0  0  0  0  0
  1  2  2  0
  2  3  1  0
  2  4  1  0
  3  5  2  0
  4  6  2  0
  5  7  1  0
  5  8  1  0
  7  9  1  0
  7 10  1  1
  8 11  1  0
  9 12  1  0
  9 13  1  0
 12 14  1  0
 13 15  1  0
 14 16  1  0
 14 17  1  1
 16 18  1  0
 16 19  1  1
 17 20  1  0
 18 21  1  0
 21 22  2  0
  6  7  1  0
 12 11  1  6
 15 16  1  0
 20 21  1  0
M  END
