
     RDKit          3D

 22 24  0  0  0  0  0  0  0  0999 V2000
   10.4981    1.4531    0.7056 Br  0  0  0  0  0  0  0  0  0  0  0  0
    9.1442    2.0690    1.8717 C   0  0  0  0  0  0  0  0  0  0  0  0
    8.9078    3.4348    1.9969 C   0  0  0  0  0  0  0  0  0  0  0  0
    8.3877    1.1538    2.5986 C   0  0  0  0  0  0  0  0  0  0  0  0
    7.9075    3.8889    2.8592 C   0  0  0  0  0  0  0  0  0  0  0  0
    7.3851    1.6076    3.4595 C   0  0  0  0  0  0  0  0  0  0  0  0
    7.1354    2.9816    3.6040 C   0  0  0  0  0  0  0  0  0  0  0  0
    6.0360    3.5117    4.5285 C   0  0  1  0  0  0  0  0  0  0  0  0
    6.0563    5.0671    4.5341 C   0  0  2  0  0  0  0  0  0  0  0  0
    4.6401    2.9606    4.1682 C   0  0  0  0  0  0  0  0  0  0  0  0
    5.4223    5.5617    5.7202 O   0  0  0  0  0  0  0  0  0  0  0  0
    5.3233    5.6811    3.3584 C   0  0  0  0  0  0  0  0  0  0  0  0
    4.6078    1.5235    3.9922 N   0  0  0  0  0  0  0  0  0  0  0  0
    3.9245    5.8025    3.3590 C   0  0  0  0  0  0  0  0  0  0  0  0
    6.0359    6.1145    2.2292 C   0  0  0  0  0  0  0  0  0  0  0  0
    4.3358    0.9921    2.7884 N   0  0  0  0  0  0  0  0  0  0  0  0
    4.7561    0.5564    4.9406 C   0  0  0  0  0  0  0  0  0  0  0  0
    3.2554    6.3343    2.2559 C   0  0  0  0  0  0  0  0  0  0  0  0
    5.3643    6.6452    1.1262 C   0  0  0  0  0  0  0  0  0  0  0  0
    4.3374   -0.3271    2.9276 N   0  0  0  0  0  0  0  0  0  0  0  0
    4.5929   -0.6131    4.2385 C   0  0  0  0  0  0  0  0  0  0  0  0
    3.9752    6.7523    1.1389 C   0  0  0  0  0  0  0  0  0  0  0  0
  1  2  1  0
  2  3  4  0
  2  4  4  0
  3  5  4  0
  4  6  4  0
  5  7  4  0
  7  8  1  0
  8  9  1  0
  8 10  1  6
  9 11  1  1
  9 12  1  0
 10 13  1  0
 12 14  4  0
 12 15  4  0
 13 16  4  0
 13 17  4  0
 14 18  4  0
 15 19  4  0
 16 20  4  0
 17 21  4  0
 18 22  4  0
  6  7  4  0
 19 22  4  0
 20 21  4  0
M  END
