
     RDKit          3D

 29 33  0  0  0  0  0  0  0  0999 V2000
   10.1497    6.0507    3.5071 O   0  0  0  0  0  0  0  0  0  0  0  0
    9.1242    5.3867    3.5744 C   0  0  0  0  0  0  0  0  0  0  0  0
    8.8516    4.1328    2.7636 C   0  0  2  0  0  0  0  0  0  0  0  0
    7.9440    5.7372    4.4642 C   0  0  0  0  0  0  0  0  0  0  0  0
    7.8349    3.4685    3.7143 C   0  0  1  0  0  0  0  0  0  0  0  0
   10.0158    3.1654    2.5870 C   0  0  0  0  0  0  0  0  0  0  0  0
    8.3023    4.6011    1.4032 C   0  0  0  0  0  0  0  0  0  0  0  0
    6.9373    4.6171    4.1612 C   0  0  0  0  0  0  0  0  0  0  0  0
    7.2198    2.2170    3.0862 C   0  0  1  0  0  0  0  0  0  0  0  0
    9.5335    1.8099    2.0365 C   0  0  0  0  0  0  0  0  0  0  0  0
    8.3509    1.1820    2.8280 C   0  0  2  0  0  0  0  0  0  0  0  0
    6.1530    1.5839    3.9831 C   0  0  0  0  0  0  0  0  0  0  0  0
    7.7789   -0.1012    2.2296 C   0  0  0  0  0  0  0  0  0  0  0  0
    5.4960    0.3467    3.3439 C   0  0  0  0  0  0  0  0  0  0  0  0
    6.4491   -0.4963    2.5058 C   0  0  0  0  0  0  0  0  0  0  0  0
    8.5913   -0.9646    1.4671 C   0  0  0  0  0  0  0  0  0  0  0  0
    4.1730    0.6987    2.6108 C   0  0  0  0  0  0  0  0  0  0  0  0
    5.9857   -1.7333    2.0134 C   0  0  0  0  0  0  0  0  0  0  0  0
    8.1079   -2.1764    0.9698 C   0  0  0  0  0  0  0  0  0  0  0  0
    3.0625   -0.3505    2.7093 C   0  0  0  0  0  0  0  0  0  0  0  0
    6.8060   -2.5523    1.2504 C   0  0  0  0  0  0  0  0  0  0  0  0
    2.6509   -0.8602    1.3250 C   0  0  0  0  0  0  0  0  0  0  0  0
    6.2913   -3.7322    0.8041 O   0  0  0  0  0  0  0  0  0  0  0  0
    1.5917    0.0222    0.7122 C   0  0  0  0  0  0  0  0  0  0  0  0
    0.2444   -0.3606    0.7390 C   0  0  0  0  0  0  0  0  0  0  0  0
    1.9376    1.2552    0.1433 C   0  0  0  0  0  0  0  0  0  0  0  0
   -0.7374    0.4710    0.1989 C   0  0  0  0  0  0  0  0  0  0  0  0
    0.9547    2.0854   -0.3970 C   0  0  0  0  0  0  0  0  0  0  0  0
   -0.3823    1.6932   -0.3693 C   0  0  0  0  0  0  0  0  0  0  0  0
  1  2  2  0
  2  3  1  0
  2  4  1  0
  3  5  1  0
  3  6  1  0
  3  7  1  6
  4  8  1  0
  5  9  1  0
  6 10  1  0
  9 11  1  0
  9 12  1  1
 11 13  1  0
 12 14  1  0
 13 15  4  0
 13 16  4  0
 14 17  1  0
 15 18  4  0
 16 19  4  0
 17 20  1  0
 18 21  4  0
 20 22  1  0
 21 23  1  0
 22 24  1  0
 24 25  4  0
 24 26  4  0
 25 27  4  0
 26 28  4  0
 27 29  4  0
  5  8  1  6
 11 10  1  6
 14 15  1  0
 19 21  4  0
 28 29  4  0
M  END
