
     RDKit          3D

 23 27  0  0  0  0  0  0  0  0999 V2000
    3.6535    8.3865    4.5582 O   0  0  0  0  0  0  0  0  0  0  0  0
    4.1687    7.2831    4.4126 C   0  0  0  0  0  0  0  0  0  0  0  0
    4.7436    6.8970    3.0999 C   0  0  0  0  0  0  0  0  0  0  0  0
    4.2105    6.2365    5.5103 C   0  0  0  0  0  0  0  0  0  0  0  0
    5.2548    5.6578    2.9582 C   0  0  0  0  0  0  0  0  0  0  0  0
    5.4999    5.4130    5.3868 C   0  0  0  0  0  0  0  0  0  0  0  0
    3.0890    5.2384    5.2251 C   0  0  0  0  0  0  0  0  0  0  0  0
    5.2185    4.6124    4.0884 C   0  0  1  0  0  0  0  0  0  0  0  0
    6.1336    5.3526    1.7831 C   0  0  0  0  0  0  0  0  0  0  0  0
    3.7618    4.1249    4.4044 C   0  0  1  0  0  0  0  0  0  0  0  0
    6.2537    3.4530    3.8795 C   0  0  2  0  0  0  0  0  0  0  0  0
    7.5411    5.1262    2.3288 C   0  0  0  0  0  0  0  0  0  0  0  0
    3.7811    2.9610    5.2339 O   0  0  0  0  0  0  0  0  0  0  0  0
    7.6410    3.9267    3.3015 C   0  0  2  0  0  0  0  0  0  0  0  0
    5.7378    2.2287    3.0637 C   0  0  0  0  0  0  0  0  0  0  0  0
    8.3523    2.7620    2.5842 C   0  0  2  0  0  0  0  0  0  0  0  0
    6.6846    1.0071    3.1591 C   0  0  0  0  0  0  0  0  0  0  0  0
    8.1598    1.4039    3.2797 C   0  0  1  0  0  0  0  0  0  0  0  0
    9.8578    2.8634    2.3500 C   0  0  0  0  0  0  0  0  0  0  0  0
    9.1353    0.5880    2.4438 C   0  0  0  0  0  0  0  0  0  0  0  0
    8.6682    1.3138    4.7297 C   0  0  0  0  0  0  0  0  0  0  0  0
   10.2159    1.4637    1.8340 C   0  0  0  0  0  0  0  0  0  0  0  0
    9.0820   -0.6260    2.2964 O   0  0  0  0  0  0  0  0  0  0  0  0
  1  2  2  0
  2  3  1  0
  2  4  1  0
  3  5  2  0
  4  6  1  0
  4  7  1  0
  5  8  1  0
  5  9  1  0
  7 10  1  0
  8 11  1  0
  9 12  1  0
 10 13  1  1
 11 14  1  0
 11 15  1  6
 14 16  1  0
 15 17  1  0
 16 18  1  0
 16 19  1  1
 18 20  1  0
 18 21  1  1
 19 22  1  0
 20 23  2  0
  8  6  1  1
  8 10  1  0
 14 12  1  6
 17 18  1  0
 20 22  1  0
M  END
