
     RDKit          3D

 17 17  0  0  0  0  0  0  0  0999 V2000
    3.8776    4.5034    5.1073 S   0  0  0  0  0  0  0  0  0  0  0  0
    4.2914    6.2145    4.6409 C   0  0  0  0  0  0  0  0  0  0  0  0
    5.2430    3.5846    4.2957 C   0  0  0  0  0  0  0  0  0  0  0  0
    3.9443    6.5305    3.2240 C   0  0  0  0  0  0  0  0  0  0  0  0
    6.5823    4.3225    4.1856 C   0  0  0  0  0  0  0  0  0  0  0  0
    3.0063    5.7775    2.5432 N   0  0  0  0  0  0  0  0  0  0  0  0
    4.4373    7.5301    2.4021 C   0  0  0  0  0  0  0  0  0  0  0  0
    7.5466    3.5119    3.4635 N   0  0  0  0  0  0  0  0  0  0  0  0
    2.9380    6.3001    1.3416 C   0  0  0  0  0  0  0  0  0  0  0  0
    3.7871    7.3597    1.2067 N   0  0  0  0  0  0  0  0  0  0  0  0
    5.4510    8.5855    2.6244 C   0  0  0  0  0  0  0  0  0  0  0  0
    8.2498    3.9553    2.5009 C   0  0  0  0  0  0  0  0  0  0  0  0
    9.1810    3.0857    1.9085 N   0  0  0  0  0  0  0  0  0  0  0  0
    8.3171    5.1650    1.8783 N   0  0  0  0  0  0  0  0  0  0  0  0
   10.2364    2.7480    2.6531 C   0  0  0  0  0  0  0  0  0  0  0  0
    7.2242    5.8646    1.2486 C   0  0  0  0  0  0  0  0  0  0  0  0
   11.1960    2.4059    3.2044 N   0  0  0  0  0  0  0  0  0  0  0  0
  1  2  1  0
  1  3  1  0
  2  4  1  0
  3  5  1  0
  4  6  4  0
  4  7  4  0
  5  8  1  0
  6  9  4  0
  7 10  4  0
  7 11  1  0
  8 12  2  0
 12 13  1  0
 12 14  1  0
 13 15  1  0
 14 16  1  0
 15 17  3  0
  9 10  4  0
M  END
