
     RDKit          3D

 23 27  0  0  0  0  0  0  0  0999 V2000
    3.1394    7.3817    1.3272 O   0  0  0  0  0  0  0  0  0  0  0  0
    3.7488    6.5523    2.0005 C   0  0  0  0  0  0  0  0  0  0  0  0
    5.1617    6.2558    1.6640 C   0  0  0  0  0  0  0  0  0  0  0  0
    3.1043    5.8368    3.1614 C   0  0  0  0  0  0  0  0  0  0  0  0
    5.9259    5.4365    2.4087 C   0  0  0  0  0  0  0  0  0  0  0  0
    3.8639    4.5670    3.5426 C   0  0  0  0  0  0  0  0  0  0  0  0
    5.4126    4.7421    3.6691 C   0  0  1  0  0  0  0  0  0  0  0  0
    7.3467    5.1627    1.9802 C   0  0  0  0  0  0  0  0  0  0  0  0
    6.1166    3.3175    3.8057 C   0  0  2  0  0  0  0  0  0  0  0  0
    5.7003    5.5017    4.9881 C   0  0  0  0  0  0  0  0  0  0  0  0
    8.2357    4.6816    3.1205 C   0  0  0  0  0  0  0  0  0  0  0  0
    7.6928    3.4201    3.8181 C   0  0  2  0  0  0  0  0  0  0  0  0
    5.6327    2.2235    2.8082 C   0  0  0  0  0  0  0  0  0  0  0  0
    5.2681    4.8478    6.1947 O   0  0  0  0  0  0  0  0  0  0  0  0
    4.6383    6.0908    5.9051 C   0  0  0  0  0  0  0  0  0  0  0  0
    8.3282    2.1614    3.2027 C   0  0  2  0  0  0  0  0  0  0  0  0
    6.2411    0.8228    3.0480 C   0  0  0  0  0  0  0  0  0  0  0  0
    7.6380    0.8681    3.6647 C   0  0  1  0  0  0  0  0  0  0  0  0
    9.8151    1.9045    3.4471 C   0  0  0  0  0  0  0  0  0  0  0  0
    8.6330   -0.1391    3.1092 C   0  0  0  0  0  0  0  0  0  0  0  0
    7.5949    0.6385    5.1858 C   0  0  0  0  0  0  0  0  0  0  0  0
   10.0088    0.4735    2.9323 C   0  0  0  0  0  0  0  0  0  0  0  0
    8.3718   -1.3080    2.8572 O   0  0  0  0  0  0  0  0  0  0  0  0
  1  2  2  0
  2  3  1  0
  2  4  1  0
  3  5  2  0
  4  6  1  0
  5  7  1  0
  5  8  1  0
  7  9  1  0
  7 10  1  1
  8 11  1  0
  9 12  1  0
  9 13  1  6
 10 14  1  0
 10 15  1  0
 12 16  1  0
 13 17  1  0
 16 18  1  0
 16 19  1  1
 18 20  1  0
 18 21  1  1
 19 22  1  0
 20 23  2  0
  7  6  1  0
 12 11  1  6
 14 15  1  0
 17 18  1  0
 20 22  1  0
M  END
