
     RDKit          3D

 22 24  0  0  0  0  0  0  0  0999 V2000
    8.4065    5.0032    1.9022 S   0  0  0  0  0  0  0  0  0  0  0  0
    8.6986    3.3964    2.4030 C   0  0  0  0  0  0  0  0  0  0  0  0
    6.8964    5.0720    2.6887 C   0  0  0  0  0  0  0  0  0  0  0  0
    7.6379    2.8856    3.1579 C   0  0  0  0  0  0  0  0  0  0  0  0
    9.8528    2.6388    2.1092 C   0  0  0  0  0  0  0  0  0  0  0  0
    6.5600    3.8704    3.3176 C   0  0  0  0  0  0  0  0  0  0  0  0
    6.1096    6.3601    2.5948 C   0  0  0  0  0  0  0  0  0  0  0  0
    7.7822    1.5449    3.6134 C   0  0  0  0  0  0  0  0  0  0  0  0
    9.9522    1.3321    2.5802 C   0  0  0  0  0  0  0  0  0  0  0  0
    5.2462    3.6834    4.0748 C   0  0  1  0  0  0  0  0  0  0  0  0
    5.2363    6.4592    1.3264 C   0  0  0  0  0  0  0  0  0  0  0  0
    8.9240    0.7868    3.3265 C   0  0  0  0  0  0  0  0  0  0  0  0
    5.0046    2.1878    4.2085 C   0  0  0  0  0  0  0  0  0  0  0  0
    5.0841    4.4187    5.4003 C   0  0  0  0  0  0  0  0  0  0  0  0
    3.8432    6.8958    1.5374 N   0  0  0  0  0  0  0  0  0  0  0  0
    4.6308    1.3737    3.1324 C   0  0  0  0  0  0  0  0  0  0  0  0
    5.2070    1.5644    5.4482 C   0  0  0  0  0  0  0  0  0  0  0  0
    3.7656    8.2521    2.0819 C   0  0  0  0  0  0  0  0  0  0  0  0
    3.0911    6.8207    0.2833 C   0  0  0  0  0  0  0  0  0  0  0  0
    4.4569    0.0131    3.3426 C   0  0  0  0  0  0  0  0  0  0  0  0
    5.0125    0.1951    5.5586 C   0  0  0  0  0  0  0  0  0  0  0  0
    4.6410   -0.5954    4.5323 N   0  0  0  0  0  0  0  0  0  0  0  0
  1  2  4  0
  1  3  4  0
  2  4  4  0
  2  5  4  0
  3  6  4  0
  3  7  1  0
  4  8  4  0
  5  9  4  0
  6 10  1  0
  7 11  1  0
  8 12  4  0
 10 13  1  0
 10 14  1  1
 11 15  1  0
 13 16  4  0
 13 17  4  0
 15 18  1  0
 15 19  1  0
 16 20  4  0
 17 21  4  0
 20 22  4  0
  4  6  4  0
  9 12  4  0
 21 22  4  0
M  END
