
     RDKit          3D

 24 27  0  0  0  0  0  0  0  0999 V2000
    3.3106    7.7194    1.7879 O   0  0  0  0  0  0  0  0  0  0  0  0
    3.9195    6.7870    2.2975 C   0  0  0  0  0  0  0  0  0  0  0  0
    5.3909    6.8073    2.4194 C   0  0  0  0  0  0  0  0  0  0  0  0
    3.2144    5.5883    2.7788 C   0  0  0  0  0  0  0  0  0  0  0  0
    6.0829    5.8313    3.0380 C   0  0  0  0  0  0  0  0  0  0  0  0
    3.8775    4.6198    3.4216 C   0  0  0  0  0  0  0  0  0  0  0  0
    7.5593    5.8076    3.0351 C   0  0  0  0  0  0  0  0  0  0  0  0
    5.3669    4.6503    3.7448 C   0  0  1  0  0  0  0  0  0  0  0  0
    8.2274    4.6790    3.3476 C   0  0  0  0  0  0  0  0  0  0  0  0
    8.3513    7.0735    2.7470 C   0  0  0  0  0  0  0  0  0  0  0  0
    6.0764    3.3412    3.2672 C   0  0  0  0  0  0  0  0  0  0  0  0
    5.4479    4.8478    5.2779 C   0  0  0  0  0  0  0  0  0  0  0  0
    7.5836    3.3610    3.6780 C   0  0  1  0  0  0  0  0  0  0  0  0
    8.1861    7.6287    1.3248 C   0  0  0  0  0  0  0  0  0  0  0  0
    5.4122    1.9989    3.6734 C   0  0  0  0  0  0  0  0  0  0  0  0
    8.2509    2.1551    3.0091 C   0  0  2  0  0  0  0  0  0  0  0  0
    7.4897    8.9815    1.2730 C   0  0  0  0  0  0  0  0  0  0  0  0
    6.1857    0.7684    3.1536 C   0  0  0  0  0  0  0  0  0  0  0  0
    7.6591    0.8312    3.5474 C   0  0  1  0  0  0  0  0  0  0  0  0
    9.7595    1.9474    3.1011 C   0  0  0  0  0  0  0  0  0  0  0  0
    8.5981   -0.1281    2.8393 C   0  0  0  0  0  0  0  0  0  0  0  0
    7.8340    0.5737    5.0567 C   0  0  0  0  0  0  0  0  0  0  0  0
    9.9391    0.5249    2.5482 C   0  0  0  0  0  0  0  0  0  0  0  0
    8.3280   -1.2888    2.5618 O   0  0  0  0  0  0  0  0  0  0  0  0
  1  2  2  0
  2  3  1  0
  2  4  1  0
  3  5  2  0
  4  6  2  0
  5  7  1  0
  5  8  1  0
  7  9  2  0
  7 10  1  0
  8 11  1  0
  8 12  1  1
 13  9  1  6
 10 14  1  0
 11 15  1  0
 13 16  1  0
 14 17  1  0
 15 18  1  0
 16 19  1  0
 16 20  1  1
 19 21  1  0
 19 22  1  1
 20 23  1  0
 21 24  2  0
  6  8  1  0
 11 13  1  0
 18 19  1  0
 21 23  1  0
M  END
