
     RDKit          3D

 24 27  0  0  0  0  0  0  0  0999 V2000
    3.2160    6.8526    2.0496 O   0  0  0  0  0  0  0  0  0  0  0  0
    4.2998    6.3434    2.3287 C   0  0  0  0  0  0  0  0  0  0  0  0
    4.3167    5.2013    3.2692 C   0  0  0  0  0  0  0  0  0  0  0  0
    5.6272    6.8783    1.7952 C   0  0  2  0  0  0  0  0  0  0  0  0
    5.4485    4.5398    3.5477 C   0  0  0  0  0  0  0  0  0  0  0  0
    6.6662    5.7336    1.7117 C   0  0  0  0  0  0  0  0  0  0  0  0
    6.0719    8.0404    2.6930 C   0  0  0  0  0  0  0  0  0  0  0  0
    5.4128    7.4263    0.3693 C   0  0  0  0  0  0  0  0  0  0  0  0
    5.3095    3.4034    4.5007 C   0  0  0  0  0  0  0  0  0  0  0  0
    6.8155    4.8100    2.9598 C   0  0  2  0  0  0  0  0  0  0  0  0
    4.5933    3.4937    5.4938 O   0  0  0  0  0  0  0  0  0  0  0  0
    6.0072    2.1178    4.1320 C   0  0  0  0  0  0  0  0  0  0  0  0
    7.4563    3.4400    2.5033 C   0  0  2  0  0  0  0  0  0  0  0  0
    7.6910    5.4987    4.0316 C   0  0  0  0  0  0  0  0  0  0  0  0
    7.4343    2.3631    3.6386 C   0  0  2  0  0  0  0  0  0  0  0  0
    8.8668    3.5946    1.8662 C   0  0  0  0  0  0  0  0  0  0  0  0
    8.0652    1.0773    3.0953 C   0  0  1  0  0  0  0  0  0  0  0  0
    9.5308    2.2587    1.4859 C   0  0  0  0  0  0  0  0  0  0  0  0
    9.5304    1.2935    2.6665 C   0  0  2  0  0  0  0  0  0  0  0  0
    8.1125   -0.1731    3.9673 C   0  0  0  0  0  0  0  0  0  0  0  0
    9.8854   -0.1509    2.3623 C   0  0  0  0  0  0  0  0  0  0  0  0
   10.4942    1.7598    3.7730 C   0  0  0  0  0  0  0  0  0  0  0  0
    9.0253   -1.1128    3.1647 C   0  0  0  0  0  0  0  0  0  0  0  0
   10.7663   -0.5022    1.5894 O   0  0  0  0  0  0  0  0  0  0  0  0
  1  2  2  0
  2  3  1  0
  2  4  1  0
  3  5  2  0
  4  6  1  0
  4  7  1  1
  4  8  1  0
  5  9  1  0
  5 10  1  0
  9 11  2  0
  9 12  1  0
 10 13  1  0
 10 14  1  1
 15 12  1  6
 13 16  1  1
 15 17  1  0
 16 18  1  0
 17 19  1  0
 17 20  1  1
 19 21  1  0
 19 22  1  1
 20 23  1  0
 21 24  2  0
  6 10  1  0
 13 15  1  0
 18 19  1  0
 21 23  1  0
M  END
