
     RDKit          3D

 24 28  0  0  0  0  0  0  0  0999 V2000
    9.1320    6.6304    1.5572 F   0  0  0  0  0  0  0  0  0  0  0  0
    8.0695    5.9155    2.0606 C   0  0  0  0  0  0  0  0  0  0  0  0
    7.4106    5.3582    0.9908 F   0  0  0  0  0  0  0  0  0  0  0  0
    7.3457    6.4010    3.2731 C   0  0  2  0  0  0  0  0  0  0  0  0
    8.2259    5.1738    3.3392 C   0  0  1  0  0  0  0  0  0  0  0  0
    5.8715    6.2819    3.3354 C   0  0  0  0  0  0  0  0  0  0  0  0
    7.6199    3.8295    3.6058 C   0  0  1  0  0  0  0  0  0  0  0  0
    5.0911    7.3121    2.9541 C   0  0  0  0  0  0  0  0  0  0  0  0
    5.2818    4.9492    3.8428 C   0  0  2  0  0  0  0  0  0  0  0  0
    6.1070    3.7572    3.2279 C   0  0  2  0  0  0  0  0  0  0  0  0
    8.3465    2.7073    2.8627 C   0  0  2  0  0  0  0  0  0  0  0  0
    3.6154    7.2822    3.0512 C   0  0  0  0  0  0  0  0  0  0  0  0
    3.8005    4.8196    3.3837 C   0  0  0  0  0  0  0  0  0  0  0  0
    5.3349    4.9516    5.3869 C   0  0  0  0  0  0  0  0  0  0  0  0
    5.5278    2.3416    3.5084 C   0  0  0  0  0  0  0  0  0  0  0  0
    7.8342    1.3189    3.3030 C   0  0  1  0  0  0  0  0  0  0  0  0
    9.8641    2.5860    2.9488 C   0  0  0  0  0  0  0  0  0  0  0  0
    2.9703    8.2707    2.7107 O   0  0  0  0  0  0  0  0  0  0  0  0
    2.9615    6.0630    3.6404 C   0  0  0  0  0  0  0  0  0  0  0  0
    6.3694    1.2048    2.8927 C   0  0  0  0  0  0  0  0  0  0  0  0
    8.8303    0.4683    2.5358 C   0  0  0  0  0  0  0  0  0  0  0  0
    8.0195    0.9683    4.7919 C   0  0  0  0  0  0  0  0  0  0  0  0
   10.1293    1.2205    2.2954 C   0  0  0  0  0  0  0  0  0  0  0  0
    8.6319   -0.6858    2.1813 O   0  0  0  0  0  0  0  0  0  0  0  0
  1  2  1  0
  2  3  1  0
  4  2  1  6
  5  2  1  6
  4  6  1  0
  7  5  1  6
  6  8  2  0
  6  9  1  0
  7 10  1  0
  7 11  1  0
  8 12  1  0
  9 13  1  0
  9 14  1  1
 10 15  1  1
 11 16  1  0
 11 17  1  1
 12 18  2  0
 12 19  1  0
 15 20  1  0
 16 21  1  0
 16 22  1  1
 17 23  1  0
 21 24  2  0
  4  5  1  0
  9 10  1  0
 13 19  1  0
 16 20  1  0
 21 23  1  0
M  END
