
     RDKit          3D

 29 33  0  0  0  0  0  0  0  0999 V2000
    9.9546   -0.3174   -0.5575 O   0  0  0  0  0  0  0  0  0  0  0  0
    9.5057   -0.3426    0.5808 C   0  0  0  0  0  0  0  0  0  0  0  0
    8.8577    0.8419    1.1771 C   0  0  0  0  0  0  0  0  0  0  0  0
    9.5630   -1.5681    1.3992 C   0  0  0  0  0  0  0  0  0  0  0  0
    8.4113    0.8337    2.4441 C   0  0  0  0  0  0  0  0  0  0  0  0
    9.1385   -1.5670    2.6693 C   0  0  0  0  0  0  0  0  0  0  0  0
    7.6800    1.9787    2.9502 C   0  0  0  0  0  0  0  0  0  0  0  0
    8.5960   -0.3453    3.4052 C   0  0  2  0  0  0  0  0  0  0  0  0
    6.8825    1.9457    4.0374 C   0  0  0  0  0  0  0  0  0  0  0  0
    7.1917   -0.6089    4.0420 C   0  0  2  0  0  0  0  0  0  0  0  0
    9.6660    0.0097    4.4653 C   0  0  0  0  0  0  0  0  0  0  0  0
    6.6519    0.6580    4.8359 C   0  0  2  0  0  0  0  0  0  0  0  0
    6.3743    3.2742    4.5653 C   0  0  0  0  0  0  0  0  0  0  0  0
    7.0960   -1.9024    4.8894 C   0  0  0  0  0  0  0  0  0  0  0  0
    5.1991    0.3050    5.2496 C   0  0  0  0  0  0  0  0  0  0  0  0
    4.9861    3.6621    4.0341 C   0  0  0  0  0  0  0  0  0  0  0  0
    5.6841   -2.1492    5.4372 C   0  0  0  0  0  0  0  0  0  0  0  0
    5.1730   -0.9313    6.1935 C   0  0  2  0  0  0  0  0  0  0  0  0
    4.2789    1.2878    5.9724 C   0  0  0  0  0  0  0  0  0  0  0  0
    5.0419    4.9321    3.2190 C   0  0  0  0  0  0  0  0  0  0  0  0
    3.6923   -0.9538    6.5204 C   0  0  0  0  0  0  0  0  0  0  0  0
    5.9099   -0.7684    7.5377 C   0  0  0  0  0  0  0  0  0  0  0  0
    3.0819    0.4238    6.3971 C   0  0  0  0  0  0  0  0  0  0  0  0
    3.9393    5.7957    3.1832 C   0  0  0  0  0  0  0  0  0  0  0  0
    6.1799    5.2520    2.4660 C   0  0  0  0  0  0  0  0  0  0  0  0
    3.0696   -1.9497    6.8648 O   0  0  0  0  0  0  0  0  0  0  0  0
    3.9735    6.9570    2.4103 C   0  0  0  0  0  0  0  0  0  0  0  0
    6.2129    6.4146    1.6940 C   0  0  0  0  0  0  0  0  0  0  0  0
    5.1095    7.2647    1.6644 C   0  0  0  0  0  0  0  0  0  0  0  0
  1  2  2  0
  2  3  1  0
  2  4  1  0
  3  5  2  0
  4  6  2  0
  5  7  1  0
  5  8  1  0
  7  9  2  0
  8 10  1  0
  8 11  1  1
 12  9  1  0
  9 13  1  0
 10 14  1  1
 12 15  1  6
 13 16  1  0
 14 17  1  0
 15 18  1  0
 15 19  1  0
 16 20  1  0
 18 21  1  0
 18 22  1  1
 19 23  1  0
 20 24  4  0
 20 25  4  0
 21 26  2  0
 24 27  4  0
 25 28  4  0
 27 29  4  0
  6  8  1  0
 10 12  1  0
 17 18  1  0
 21 23  1  0
 28 29  4  0
M  END
