
     RDKit          3D

 23 26  0  0  0  0  0  0  0  0999 V2000
    3.3305    7.7846    1.6130 O   0  0  0  0  0  0  0  0  0  0  0  0
    3.9304    6.8692    2.1625 C   0  0  0  0  0  0  0  0  0  0  0  0
    5.4012    6.8848    2.2915 C   0  0  0  0  0  0  0  0  0  0  0  0
    3.2144    5.6960    2.6888 C   0  0  0  0  0  0  0  0  0  0  0  0
    6.0826    5.9274    2.9497 C   0  0  0  0  0  0  0  0  0  0  0  0
    3.8687    4.7441    3.3649 C   0  0  0  0  0  0  0  0  0  0  0  0
    7.5576    5.8973    2.9556 C   0  0  0  0  0  0  0  0  0  0  0  0
    5.3592    4.7689    3.6835 C   0  0  1  0  0  0  0  0  0  0  0  0
    8.2206    4.7671    3.2723 C   0  0  0  0  0  0  0  0  0  0  0  0
    8.3543    7.1554    2.6598 C   0  0  0  0  0  0  0  0  0  0  0  0
    6.0562    3.4449    3.2276 C   0  0  0  0  0  0  0  0  0  0  0  0
    5.4476    4.9955    5.2117 C   0  0  0  0  0  0  0  0  0  0  0  0
    7.5669    3.4597    3.6275 C   0  0  1  0  0  0  0  0  0  0  0  0
    8.4606    7.4452    1.1674 C   0  0  0  0  0  0  0  0  0  0  0  0
    5.3832    2.1167    3.6641 C   0  0  0  0  0  0  0  0  0  0  0  0
    8.2194    2.2351    2.9785 C   0  0  2  0  0  0  0  0  0  0  0  0
    6.1426    0.8698    3.1629 C   0  0  0  0  0  0  0  0  0  0  0  0
    7.6190    0.9271    3.5461 C   0  0  1  0  0  0  0  0  0  0  0  0
    9.7265    2.0153    3.0664 C   0  0  0  0  0  0  0  0  0  0  0  0
    8.5450   -0.0542    2.8513 C   0  0  0  0  0  0  0  0  0  0  0  0
    7.8010    0.6971    5.0592 C   0  0  0  0  0  0  0  0  0  0  0  0
    9.8902    0.5808    2.5403 C   0  0  0  0  0  0  0  0  0  0  0  0
    8.2628   -1.2174    2.5977 O   0  0  0  0  0  0  0  0  0  0  0  0
  1  2  2  0
  2  3  1  0
  2  4  1  0
  3  5  2  0
  4  6  2  0
  5  7  1  0
  5  8  1  0
  7  9  2  0
  7 10  1  0
  8 11  1  0
  8 12  1  1
 13  9  1  6
 10 14  1  0
 11 15  1  0
 13 16  1  0
 15 17  1  0
 16 18  1  0
 16 19  1  1
 18 20  1  0
 18 21  1  1
 19 22  1  0
 20 23  2  0
  6  8  1  0
 11 13  1  0
 17 18  1  0
 20 22  1  0
M  END
