
     RDKit          3D

 27 29  0  0  0  0  0  0  0  0999 V2000
    6.3699    6.7750    2.4615 O   0  0  0  0  0  0  0  0  0  0  0  0
    6.4853    5.4568    2.8113 C   0  0  0  0  0  0  0  0  0  0  0  0
    5.2657    6.9685    1.5552 C   0  0  0  0  0  0  0  0  0  0  0  0
    5.3785    4.6115    2.8447 C   0  0  0  0  0  0  0  0  0  0  0  0
    7.7455    4.9910    3.1776 C   0  0  0  0  0  0  0  0  0  0  0  0
    5.7963    7.6259    0.2726 C   0  0  0  0  0  0  0  0  0  0  0  0
    5.5434    3.2734    3.2076 C   0  0  0  0  0  0  0  0  0  0  0  0
    7.9107    3.6528    3.5374 C   0  0  0  0  0  0  0  0  0  0  0  0
    6.0747    9.0513    0.4585 N   0  0  0  0  0  0  0  0  0  0  0  0
    6.8106    2.7839    3.5574 C   0  0  0  0  0  0  0  0  0  0  0  0
    7.0050    1.3472    3.9057 C   0  0  0  0  0  0  0  0  0  0  0  0
    8.0964    0.5865    3.2406 C   0  0  0  0  0  0  0  0  0  0  0  0
    6.1928    0.7186    4.8039 C   0  0  0  0  0  0  0  0  0  0  0  0
    7.8272   -0.2415    2.1395 C   0  0  0  0  0  0  0  0  0  0  0  0
    9.4022    0.6529    3.7430 C   0  0  0  0  0  0  0  0  0  0  0  0
    5.1498    1.4541    5.5677 C   0  0  0  0  0  0  0  0  0  0  0  0
    6.2799   -0.7562    5.1794 C   0  0  0  0  0  0  0  0  0  0  0  0
    8.8518   -0.9737    1.5351 C   0  0  0  0  0  0  0  0  0  0  0  0
   10.4260   -0.0797    3.1400 C   0  0  0  0  0  0  0  0  0  0  0  0
    5.1166    2.8562    5.5880 C   0  0  0  0  0  0  0  0  0  0  0  0
    4.1680    0.7472    6.2757 C   0  0  0  0  0  0  0  0  0  0  0  0
    7.0167   -1.0126    6.4928 C   0  0  0  0  0  0  0  0  0  0  0  0
   10.1440   -0.8844    2.0422 C   0  0  0  0  0  0  0  0  0  0  0  0
    4.1245    3.5329    6.3054 C   0  0  0  0  0  0  0  0  0  0  0  0
    3.1845    1.4230    7.0017 C   0  0  0  0  0  0  0  0  0  0  0  0
   11.1756   -1.5823    1.4885 O   0  0  0  0  0  0  0  0  0  0  0  0
    3.1610    2.8175    7.0124 C   0  0  0  0  0  0  0  0  0  0  0  0
  1  2  1  0
  1  3  1  0
  2  4  4  0
  2  5  4  0
  3  6  1  0
  4  7  4  0
  5  8  4  0
  6  9  1  0
  7 10  4  0
 10 11  1  0
 11 12  1  0
 11 13  2  3
 12 14  4  0
 12 15  4  0
 13 16  1  0
 13 17  1  0
 14 18  4  0
 15 19  4  0
 16 20  4  0
 16 21  4  0
 17 22  1  0
 18 23  4  0
 20 24  4  0
 21 25  4  0
 23 26  1  0
 24 27  4  0
  8 10  4  0
 19 23  4  0
 25 27  4  0
M  END
