
     RDKit          3D

 23 27  0  0  0  0  0  0  0  0999 V2000
    3.2426    8.2930    1.4510 O   0  0  0  0  0  0  0  0  0  0  0  0
    3.9036    7.4497    2.0447 C   0  0  0  0  0  0  0  0  0  0  0  0
    5.3629    7.3583    1.8406 C   0  0  1  0  0  0  0  0  0  0  0  0
    3.3077    6.4852    3.0339 C   0  0  0  0  0  0  0  0  0  0  0  0
    6.1385    7.5389    3.0296 O   0  0  0  0  0  0  0  0  0  0  0  0
    6.1813    6.2253    2.4499 C   0  0  1  0  0  0  0  0  0  0  0  0
    3.9695    5.1133    2.9196 C   0  0  0  0  0  0  0  0  0  0  0  0
    5.4830    5.1297    3.2685 C   0  0  2  0  0  0  0  0  0  0  0  0
    7.4823    5.8870    1.7718 C   0  0  0  0  0  0  0  0  0  0  0  0
    5.6243    5.3334    4.7844 C   0  0  0  0  0  0  0  0  0  0  0  0
    6.1383    3.7519    2.8984 C   0  0  1  0  0  0  0  0  0  0  0  0
    8.3788    5.0088    2.6349 C   0  0  0  0  0  0  0  0  0  0  0  0
    4.8162    4.9518    5.6252 O   0  0  0  0  0  0  0  0  0  0  0  0
    7.6754    3.7595    3.1989 C   0  0  2  0  0  0  0  0  0  0  0  0
    5.4386    2.5010    3.4900 C   0  0  0  0  0  0  0  0  0  0  0  0
    8.2562    2.4334    2.6958 C   0  0  2  0  0  0  0  0  0  0  0  0
    6.1390    1.1829    3.1057 C   0  0  0  0  0  0  0  0  0  0  0  0
    7.6274    1.2307    3.4395 C   0  0  1  0  0  0  0  0  0  0  0  0
    9.7565    2.1642    2.7734 C   0  0  0  0  0  0  0  0  0  0  0  0
    8.4928    0.1341    2.8472 C   0  0  0  0  0  0  0  0  0  0  0  0
    7.8505    1.1827    4.9638 C   0  0  0  0  0  0  0  0  0  0  0  0
    9.8534    0.6682    2.4341 C   0  0  0  0  0  0  0  0  0  0  0  0
    8.1532   -1.0361    2.7353 O   0  0  0  0  0  0  0  0  0  0  0  0
  1  2  2  0
  2  3  1  0
  2  4  1  0
  3  5  1  1
  3  6  1  0
  4  7  1  0
  6  8  1  0
  6  9  1  6
  8 10  1  1
  8 11  1  0
  9 12  1  0
 10 13  2  0
 11 14  1  0
 11 15  1  1
 14 16  1  0
 15 17  1  0
 16 18  1  0
 16 19  1  1
 18 20  1  0
 18 21  1  1
 19 22  1  0
 20 23  2  0
  6  5  1  0
  7  8  1  0
 14 12  1  6
 17 18  1  0
 20 22  1  0
M  END
