
     RDKit          3D

 22 26  0  0  0  0  0  0  0  0999 V2000
    4.0799    8.6496    2.1081 O   0  0  0  0  0  0  0  0  0  0  0  0
    4.5750    7.5920    2.4845 C   0  0  0  0  0  0  0  0  0  0  0  0
    6.0308    7.5115    2.7704 C   0  0  0  0  0  0  0  0  0  0  0  0
    3.7573    6.3342    2.7255 C   0  0  1  0  0  0  0  0  0  0  0  0
    6.5295    6.3515    3.2385 C   0  0  0  0  0  0  0  0  0  0  0  0
    4.5955    5.1080    2.3527 C   0  0  0  0  0  0  0  0  0  0  0  0
    3.5320    6.1681    4.2288 C   0  0  0  0  0  0  0  0  0  0  0  0
    5.6412    5.1169    3.4888 C   0  0  2  0  0  0  0  0  0  0  0  0
    8.0041    6.1610    3.4291 C   0  0  0  0  0  0  0  0  0  0  0  0
    4.7474    5.3701    4.7324 C   0  0  0  0  0  0  0  0  0  0  0  0
    6.5087    3.8272    3.6514 C   0  0  2  0  0  0  0  0  0  0  0  0
    8.4839    5.0430    2.5064 C   0  0  0  0  0  0  0  0  0  0  0  0
    7.6445    3.7425    2.6026 C   0  0  1  0  0  0  0  0  0  0  0  0
    5.6898    2.5134    3.7318 C   0  0  0  0  0  0  0  0  0  0  0  0
    8.5826    2.5290    2.8527 C   0  0  0  0  0  0  0  0  0  0  0  0
    6.3814    1.2952    3.1179 C   0  0  0  0  0  0  0  0  0  0  0  0
    7.8778    1.2675    3.4098 C   0  0  1  0  0  0  0  0  0  0  0  0
    9.2481    2.0792    1.5393 C   0  0  0  0  0  0  0  0  0  0  0  0
    8.5613    0.1414    2.6449 C   0  0  0  0  0  0  0  0  0  0  0  0
    8.1705    1.0676    4.9030 C   0  0  0  0  0  0  0  0  0  0  0  0
    9.6730    0.6409    1.7680 C   0  0  0  0  0  0  0  0  0  0  0  0
    8.2783   -1.0446    2.7652 O   0  0  0  0  0  0  0  0  0  0  0  0
  1  2  2  0
  2  3  1  0
  2  4  1  0
  3  5  2  0
  4  6  1  0
  4  7  1  1
  5  8  1  0
  5  9  1  0
  7 10  1  0
  8 11  1  0
  9 12  1  0
 11 13  1  0
 11 14  1  6
 13 15  1  0
 14 16  1  0
 15 17  1  0
 15 18  1  0
 17 19  1  0
 17 20  1  1
 18 21  1  0
 19 22  2  0
  6  8  1  0
  8 10  1  1
 13 12  1  1
 16 17  1  0
 19 21  1  0
M  END
