
     RDKit          3D

 23 27  0  0  0  0  0  0  0  0999 V2000
    4.2238    3.8957    5.9541 S   0  0  0  0  0  0  0  0  0  0  0  0
    5.4457    4.9052    5.2545 C   0  0  0  0  0  0  0  0  0  0  0  0
    4.1408    5.5800    5.5881 C   0  0  0  0  0  0  0  0  0  0  0  0
    5.9867    4.6785    3.8225 C   0  0  1  0  0  0  0  0  0  0  0  0
    6.8296    5.9048    3.3865 C   0  0  0  0  0  0  0  0  0  0  0  0
    6.8834    3.3795    3.6569 C   0  0  2  0  0  0  0  0  0  0  0  0
    4.7581    4.5813    2.8638 C   0  0  0  0  0  0  0  0  0  0  0  0
    6.3207    6.9617    2.7296 C   0  0  0  0  0  0  0  0  0  0  0  0
    8.3160    5.8242    3.6632 C   0  0  0  0  0  0  0  0  0  0  0  0
    7.9435    3.5770    2.5231 C   0  0  0  0  0  0  0  0  0  0  0  0
    6.1516    2.0343    3.4302 C   0  0  0  0  0  0  0  0  0  0  0  0
    3.9836    5.8877    2.7072 C   0  0  0  0  0  0  0  0  0  0  0  0
    4.8867    7.0477    2.3732 C   0  0  0  0  0  0  0  0  0  0  0  0
    8.9689    4.6386    2.9370 C   0  0  0  0  0  0  0  0  0  0  0  0
    8.5071    2.2373    2.0351 C   0  0  2  0  0  0  0  0  0  0  0  0
    7.1072    0.8206    3.5557 C   0  0  0  0  0  0  0  0  0  0  0  0
    4.4596    8.0720    1.8455 O   0  0  0  0  0  0  0  0  0  0  0  0
    8.5452    1.1316    3.1063 C   0  0  1  0  0  0  0  0  0  0  0  0
    9.8605    2.1664    1.3404 C   0  0  0  0  0  0  0  0  0  0  0  0
    9.2246    0.0541    2.2707 C   0  0  0  0  0  0  0  0  0  0  0  0
    9.4795    1.3771    4.3040 C   0  0  0  0  0  0  0  0  0  0  0  0
   10.0578    0.6556    1.1497 C   0  0  0  0  0  0  0  0  0  0  0  0
    9.1377   -1.1484    2.4829 O   0  0  0  0  0  0  0  0  0  0  0  0
  1  2  1  0
  1  3  1  0
  4  2  1  1
  4  5  1  0
  4  6  1  0
  4  7  1  0
  5  8  2  0
  5  9  1  0
  6 10  1  0
  6 11  1  6
  7 12  1  0
  8 13  1  0
  9 14  1  0
 10 15  1  0
 11 16  1  0
 13 17  2  0
 15 18  1  0
 15 19  1  1
 18 20  1  0
 18 21  1  1
 19 22  1  0
 20 23  2  0
  2  3  1  0
 10 14  1  0
 12 13  1  0
 16 18  1  0
 20 22  1  0
M  END
