
     RDKit          3D

 21 24  0  0  0  0  0  0  0  0999 V2000
    8.0922   -1.0733    2.6797 O   0  0  0  0  0  0  0  0  0  0  0  0
    8.4025    0.1094    2.7290 C   0  0  0  0  0  0  0  0  0  0  0  0
    7.5753    1.1934    3.3960 C   0  0  1  0  0  0  0  0  0  0  0  0
    9.6920    0.6720    2.1553 C   0  0  0  0  0  0  0  0  0  0  0  0
    8.0977    2.4003    2.5903 C   0  0  2  0  0  0  0  0  0  0  0  0
    6.0654    1.1198    3.1968 C   0  0  0  0  0  0  0  0  0  0  0  0
    7.9449    1.1700    4.8907 C   0  0  0  0  0  0  0  0  0  0  0  0
    9.6018    2.1658    2.5009 C   0  0  0  0  0  0  0  0  0  0  0  0
    7.5598    3.7242    3.1412 C   0  0  2  0  0  0  0  0  0  0  0  0
    5.3854    2.4253    3.6494 C   0  0  0  0  0  0  0  0  0  0  0  0
    6.0039    3.7075    3.0219 C   0  0  1  0  0  0  0  0  0  0  0  0
    8.1391    4.9290    2.3900 C   0  0  0  0  0  0  0  0  0  0  0  0
    5.3406    5.0473    3.5173 C   0  0  1  0  0  0  0  0  0  0  0  0
    7.5673    6.2535    2.9164 C   0  0  2  0  0  0  0  0  0  0  0  0
    6.0393    6.2450    2.8328 C   0  0  0  0  0  0  0  0  0  0  0  0
    3.8215    5.0009    3.1563 C   0  0  0  0  0  0  0  0  0  0  0  0
    5.4660    5.2226    5.0500 C   0  0  0  0  0  0  0  0  0  0  0  0
    8.2790    7.4175    2.2120 C   0  0  0  0  0  0  0  0  0  0  0  0
    5.3327    7.2155    2.2171 C   0  0  0  0  0  0  0  0  0  0  0  0
    3.1607    6.3732    3.1686 C   0  0  0  0  0  0  0  0  0  0  0  0
    3.8371    7.2950    2.1656 C   0  0  0  0  0  0  0  0  0  0  0  0
  1  2  2  0
  2  3  1  0
  2  4  1  0
  3  5  1  0
  3  6  1  0
  3  7  1  1
  4  8  1  0
  5  9  1  0
  6 10  1  0
  9 11  1  0
  9 12  1  6
 11 13  1  0
 12 14  1  0
 13 15  1  0
 13 16  1  0
 13 17  1  1
 14 18  1  6
 15 19  2  0
 16 20  1  0
 19 21  1  0
  5  8  1  1
 11 10  1  1
 14 15  1  0
 20 21  1  0
M  END
